 03/19/17 WHU LAB               100.0 2017 S IEEE 14 Bus Test Case         
BUS DATA FOLLOWS                             14 ITEMS
   1 Bus 1     HV  1  1  3  1.060   0.00      0.0       0.0213130909.2-210791397.1     0.0  1.060     0.0     0.0     0.0     0.0    0
   2 Bus 2     HV  1  1  2 61009.138  49.39     40.0      25.0    70.0    50.0     0.0  1.045    50.0   -40.0     0.0     0.0    0
   3 Bus 3     HV  1  1  2 3259365.706  60.74     94.2      25.0     0.0    40.0     0.0  1.010    40.0     0.9     0.0     0.0    0
   4 Bus 4     HV  1  1  0 20509.014  49.14     47.8      10.0     0.0     0.0     0.0  0.000     1.0     0.9     0.0     0.0    0
   5 Bus 5     HV  1  1  0 764887.951 -74.65     15.0       3.0     0.0     0.0     0.0  0.000     1.0     0.9     0.0     0.0    0
   6 Bus 6     LV  1  1  2 389564.114 177.66     11.2       7.5     0.0    24.0     0.0  1.070    24.0    -6.0     0.0     0.0    0
   7 Bus 7     ZV  1  1  0 719837.186  63.01      0.0       0.0     0.0     0.0     0.0  0.000     1.0     0.9     0.0     0.0    0
   8 Bus 8     TV  1  1  2 29007.198 117.16      0.0       0.0     0.0    24.0     0.0  1.090    24.0    -6.0     0.0     0.0    0
   9 Bus 9     LV  1  1  0 34473.274   5.76     50.0      30.0     0.0     0.0     0.0  0.000     1.0     0.9     0.0     0.2    0
  10 Bus 10    LV  1  1  0 25351.148 -83.01     18.0      16.0     0.0     0.0     0.0  0.000     1.0     0.9     0.0     0.0    0
  11 Bus 11    LV  1  1  0 10482.039 -15.85      8.0       3.0     0.0     0.0     0.0  0.000     1.0     0.9     0.0     0.0    0
  12 Bus 12    LV  1  1  0 6437.427  23.05     15.0       3.0     0.0     0.0     0.0  0.000     1.0     0.9     0.0     0.2    0
  13 Bus 13    LV  1  1  0 33614.599 101.75     20.0       6.8     0.0     0.0     0.0  0.000     1.0     0.9     0.0     0.0    0
  14 Bus 14    LV  1  1  0 77081.021  46.40     20.9       7.0     0.0     0.0     0.0  0.000     1.0     0.9     0.0     0.2    0
-999
BRANCH DATA FOLLOWS                             20 ITEMS
   1    2  1  1 1 0   0.01938   0.05917   0.05280     0     0     0   0 0       0       0      0      0      0       0      0
   1    5  1  1 1 0   0.05403   0.22304   0.04920     0     0     0   0 0       0       0      0      0      0       0      0
   2    3  1  1 1 0   0.04699   0.19797   0.04380     0     0     0   0 0       0       0      0      0      0       0      0
   2    4  1  1 1 0   0.05811   0.17632   0.03400     0     0     0   0 0       0       0      0      0      0       0      0
   2    5  1  1 1 0   0.05695   0.17388   0.03460     0     0     0   0 0       0       0      0      0      0       0      0
   3    4  1  1 1 0   0.06701   0.17103   0.01280     0     0     0   0 0       0       0      0      0      0       0      0
   4    5  1  1 1 0   0.01335   0.04211   0.00000     0     0     0   0 0       0       0      0      0      0       0      0
   4    7  1  1 1 1   0.00000   0.20912   0.00000     0     0     0   0 0   0.978       0      0      0      0       0      0
   4    9  1  1 1 1   0.00000   0.55618   0.00000     0     0     0   0 0   0.969       0      0      0      0       0      0
   5    6  1  1 1 1   0.00000   0.25202   0.00000     0     0     0   0 0   0.932       0      0      0      0       0      0
   6   11  1  1 1 0   0.09498   0.19890   0.00000     0     0     0   0 0       0       0      0      0      0       0      0
   6   12  1  1 1 0   0.12291   0.25581   0.00000     0     0     0   0 0       0       0      0      0      0       0      0
   6   13  1  1 1 0   0.06615   0.13027   0.00000     0     0     0   0 0       0       0      0      0      0       0      0
   7    8  1  1 1 0   0.00000   0.17615   0.00000     0     0     0   0 0       0       0      0      0      0       0      0
   7    9  1  1 1 0   0.00000   0.11001   0.00000     0     0     0   0 0       0       0      0      0      0       0      0
   9   10  1  1 1 0   0.03181   0.08450   0.00000     0     0     0   0 0       0       0      0      0      0       0      0
   9   14  1  1 1 0   0.12711   0.27038   0.00000     0     0     0   0 0       0       0      0      0      0       0      0
  10   11  1  1 1 0   0.08205   0.19207   0.00000     0     0     0   0 0       0       0      0      0      0       0      0
  12   13  1  1 1 0   0.22092   0.19988   0.00000     0     0     0   0 0       0       0      0      0      0       0      0
  13   14  1  1 1 0   0.17093   0.34802   0.00000     0     0     0   0 0       0       0      0      0      0       0      0
-999
END OF DATA
