 03/31/17 WHU LAB               100.0 2017 S IEEE 300-BUS TEST SYSTEM      
BUS DATA FOLLOWS                            300 ITEMS
   1 1             1  1  0   -nan   -nan     90.0      49.0     0.0     0.0   115.0  0.000     0.0     0.0     0.0     0.0    0
   2 1             1  1  0   -nan   -nan     56.0      15.0     0.0     0.0   115.0  0.000     0.0     0.0     0.0     0.0    0
   3 1             1  1  0   -nan   -nan     20.0       0.0     0.0     0.0   230.0  0.000     0.0     0.0     0.0     0.0    0
   4 1             1  1  0   -nan   -nan      0.0       0.0     0.0     0.0   345.0  0.000     0.0     0.0     0.0     0.0    0
   5 1             1  1  0   -nan   -nan    353.0     130.0     0.0     0.0   115.0  0.000     0.0     0.0     0.0     0.0    0
   6 1             1  1  0   -nan   -nan    120.0      41.0     0.0     0.0   115.0  0.000     0.0     0.0     0.0     0.0    0
   7 1             1  1  0   -nan   -nan      0.0       0.0     0.0     0.0   230.0  0.000     0.0     0.0     0.0     0.0    0
   8 1             1  1  2   -nan   -nan     58.0      14.0    -5.0     nan   115.0  1.015    10.0   -10.0     0.0     0.0    0
   9 1             1  1  0   -nan   -nan     96.0      43.0     0.0     0.0   115.0  0.000     0.0     0.0     0.0     0.0    0
  10 1             1  1  2   -nan   -nan    148.0      33.0    -5.0     nan   230.0  1.020    20.0   -20.0     0.0     0.0    0
  11 1             1  1  0   -nan   -nan     83.0      21.0     0.0     0.0   115.0  0.000     0.0     0.0     0.0     0.0    0
  12 1             1  1  0   -nan   -nan      0.0       0.0     0.0     0.0   230.0  0.000     0.0     0.0     0.0     0.0    0
  13 1             1  1  0   -nan   -nan     58.0      10.0     0.0     0.0   115.0  0.000     0.0     0.0     0.0     0.0    0
  14 1             1  1  0   -nan   -nan    160.0      60.0     0.0     0.0   115.0  0.000     0.0     0.0     0.0     0.0    0
  15 1             1  1  0   -nan   -nan    126.7      23.0     0.0     0.0   115.0  0.000     0.0     0.0     0.0     0.0    0
  16 1             1  1  0   -nan   -nan      0.0       0.0     0.0     0.0   345.0  0.000     0.0     0.0     0.0     0.0    0
  17 1             1  1  0   -nan   -nan    561.0     220.0     0.0     0.0   115.0  0.000     0.0     0.0     0.0     0.0    0
  19 1             1  1  0   -nan   -nan      0.0       0.0     0.0     0.0   230.0  0.000     0.0     0.0     0.0     0.0    0
  20 1             1  1  2   -nan   -nan    595.0     120.0   -10.0     nan   115.0  1.001    20.0   -20.0     0.0     0.0    0
  21 1             1  1  0   -nan   -nan     77.0       1.0     0.0     0.0   230.0  0.000     0.0     0.0     0.0     0.0    0
  22 1             1  1  0   -nan   -nan     81.0      23.0     0.0     0.0   115.0  0.000     0.0     0.0     0.0     0.0    0
  23 1             1  1  0   -nan   -nan     21.0       7.0     0.0     0.0   115.0  0.000     0.0     0.0     0.0     0.0    0
  24 1             1  1  0   -nan   -nan      0.0       0.0     0.0     0.0   230.0  0.000     0.0     0.0     0.0     0.0    0
  25 1             1  1  0   -nan   -nan     45.0      12.0     0.0     0.0   115.0  0.000     0.0     0.0     0.0     0.0    0
  26 1             1  1  0   -nan   -nan     28.0       9.0     0.0     0.0   115.0  0.000     0.0     0.0     0.0     0.0    0
  27 1             1  1  0   -nan   -nan     69.0      13.0     0.0     0.0   115.0  0.000     0.0     0.0     0.0     0.0    0
  33 1             1  1  0   -nan   -nan     55.0       6.0     0.0     0.0   115.0  0.000     0.0     0.0     0.0     0.0    0
  34 1             1  1  0   -nan   -nan      0.0       0.0     0.0     0.0   345.0  0.000     0.0     0.0     0.0     0.0    0
  35 1             1  1  0   -nan   -nan      0.0       0.0     0.0     0.0   115.0  0.000     0.0     0.0     0.0     0.0    0
  36 1             1  1  0   -nan   -nan      0.0       0.0     0.0     0.0   230.0  0.000     0.0     0.0     0.0     0.0    0
  37 1             1  1  0   -nan   -nan     85.0      32.0     0.0     0.0   115.0  0.000     0.0     0.0     0.0     0.0    0
  38 1             1  1  0   -nan   -nan    155.0      18.0     0.0     0.0   115.0  0.000     0.0     0.0     0.0     0.0    0
  39 1             1  1  0   -nan   -nan      0.0       0.0     0.0     0.0   345.0  0.000     0.0     0.0     0.0     0.0    0
  40 1             1  1  0   -nan   -nan     46.0     -21.0     0.0     0.0   115.0  0.000     0.0     0.0     0.0     0.0    0
  41 1             1  1  0   -nan   -nan     86.0       0.0     0.0     0.0   115.0  0.000     0.0     0.0     0.0     0.0    0
  42 1             1  1  0   -nan   -nan      0.0       0.0     0.0     0.0   345.0  0.000     0.0     0.0     0.0     0.0    0
  43 1             1  1  0   -nan   -nan     39.0       9.0     0.0     0.0   115.0  0.000     0.0     0.0     0.0     0.0    0
  44 1             1  1  0   -nan   -nan    195.0      29.0     0.0     0.0   115.0  0.000     0.0     0.0     0.0     0.0    0
  45 1             1  1  0   -nan   -nan      0.0       0.0     0.0     0.0   230.0  0.000     0.0     0.0     0.0     0.0    0
  46 1             1  1  0   -nan   -nan      0.0       0.0     0.0     0.0   345.0  0.000     0.0     0.0     0.0     0.0    0
  47 1             1  1  0   -nan   -nan     58.0      11.8     0.0     0.0   115.0  0.000     0.0     0.0     0.0     0.0    0
  48 1             1  1  0   -nan   -nan     41.0      19.0     0.0     0.0   115.0  0.000     0.0     0.0     0.0     0.0    0
  49 1             1  1  0   -nan   -nan     92.0      26.0     0.0     0.0   115.0  0.000     0.0     0.0     0.0     0.0    0
  51 1             1  1  0   -nan   -nan     -5.0       5.0     0.0     0.0   115.0  0.000     0.0     0.0     0.0     0.0    0
  52 1             1  1  0   -nan   -nan     61.0      28.0     0.0     0.0   115.0  0.000     0.0     0.0     0.0     0.0    0
  53 1             1  1  0   -nan   -nan     69.0       3.0     0.0     0.0   115.0  0.000     0.0     0.0     0.0     0.0    0
  54 1             1  1  0   -nan   -nan     10.0       1.0     0.0     0.0   115.0  0.000     0.0     0.0     0.0     0.0    0
  55 1             1  1  0   -nan   -nan     22.0      10.0     0.0     0.0   115.0  0.000     0.0     0.0     0.0     0.0    0
  57 1             1  1  0   -nan   -nan     98.0      20.0     0.0     0.0   115.0  0.000     0.0     0.0     0.0     0.0    0
  58 1             1  1  0   -nan   -nan     14.0       1.0     0.0     0.0   115.0  0.000     0.0     0.0     0.0     0.0    0
  59 1             1  1  0   -nan   -nan    218.0     106.0     0.0     0.0   115.0  0.000     0.0     0.0     0.0     0.0    0
  60 1             1  1  0   -nan   -nan      0.0       0.0     0.0     0.0   230.0  0.000     0.0     0.0     0.0     0.0    0
  61 1             1  1  0   -nan   -nan    227.0     110.0     0.0     0.0   115.0  0.000     0.0     0.0     0.0     0.0    0
  62 1             1  1  0   -nan   -nan      0.0       0.0     0.0     0.0   230.0  0.000     0.0     0.0     0.0     0.0    0
  63 1             1  1  2   -nan   -nan     70.0      30.0     0.0     nan   115.0  0.958    25.0   -25.0     0.0     0.0    0
  64 1             1  1  0   -nan   -nan      0.0       0.0     0.0     0.0   230.0  0.000     0.0     0.0     0.0     0.0    0
  69 1             1  1  0   -nan   -nan      0.0       0.0     0.0     0.0   115.0  0.000     0.0     0.0     0.0     0.0    0
  70 1             1  1  0   -nan   -nan     56.0      20.0     0.0     0.0   115.0  0.000     0.0     0.0     0.0     0.0    0
  71 1             1  1  0   -nan   -nan    116.0      38.0     0.0     0.0   115.0  0.000     0.0     0.0     0.0     0.0    0
  72 1             1  1  0   -nan   -nan     57.0      19.0     0.0     0.0   115.0  0.000     0.0     0.0     0.0     0.0    0
  73 1             1  1  0   -nan   -nan    224.0      71.0     0.0     0.0   115.0  0.000     0.0     0.0     0.0     0.0    0
  74 1             1  1  0   -nan   -nan      0.0       0.0     0.0     0.0   230.0  0.000     0.0     0.0     0.0     0.0    0
  76 1             1  1  2   -nan   -nan    208.0     107.0     0.0     nan   115.0  0.963    35.0    12.0     0.0     0.0    0
  77 1             1  1  0   -nan   -nan     74.0      28.0     0.0     0.0   115.0  0.000     0.0     0.0     0.0     0.0    0
  78 1             1  1  0   -nan   -nan      0.0       0.0     0.0     0.0   115.0  0.000     0.0     0.0     0.0     0.0    0
  79 1             1  1  0   -nan   -nan     48.0      14.0     0.0     0.0   115.0  0.000     0.0     0.0     0.0     0.0    0
  80 1             1  1  0   -nan   -nan     28.0       7.0     0.0     0.0   115.0  0.000     0.0     0.0     0.0     0.0    0
  81 1             1  1  0   -nan   -nan      0.0       0.0     0.0     0.0   345.0  0.000     0.0     0.0     0.0     0.0    0
  84 1             1  1  2   -nan   -nan     37.0      13.0   375.0     nan   115.0  1.025   240.0  -240.0     0.0     0.0    0
  85 1             1  1  0   -nan   -nan      0.0       0.0     0.0     0.0   230.0  0.000     0.0     0.0     0.0     0.0    0
  86 1             1  1  0   -nan   -nan      0.0       0.0     0.0     0.0   230.0  0.000     0.0     0.0     0.0     0.0    0
  87 1             1  1  0   -nan   -nan      0.0       0.0     0.0     0.0   230.0  0.000     0.0     0.0     0.0     0.0    0
  88 1             1  1  0   -nan   -nan      0.0       0.0     0.0     0.0   230.0  0.000     0.0     0.0     0.0     0.0    0
  89 1             1  1  0   -nan   -nan     44.2       0.0     0.0     0.0   115.0  0.000     0.0     0.0     0.0     0.0    0
  90 1             1  1  0   -nan   -nan     66.0       0.0     0.0     0.0   115.0  0.000     0.0     0.0     0.0     0.0    0
  91 1             1  1  2   -nan   -nan     17.4       0.0   155.0     nan   115.0  1.052    96.0   -11.0     0.0     0.0    0
  92 1             1  1  2   -nan   -nan     15.8       0.0   290.0     nan   115.0  1.052   153.0  -153.0     0.0     0.0    0
  94 1             1  1  0   -nan   -nan     60.3       0.0     0.0     0.0   115.0  0.000     0.0     0.0     0.0     0.0    0
  97 1             1  1  0   -nan   -nan     39.9       0.0     0.0     0.0   115.0  0.000     0.0     0.0     0.0     0.0    0
  98 1             1  1  2   -nan   -nan     66.7       0.0    68.0     nan   115.0  1.000    56.0   -30.0     0.0     0.0    0
  99 1             1  1  0   -nan   -nan     83.5       0.0     0.0     0.0   115.0  0.000     0.0     0.0     0.0     0.0    0
 100 1             1  1  0   -nan   -nan      0.0       0.0     0.0     0.0   115.0  0.000     0.0     0.0     0.0     0.0    0
 102 1             1  1  0   -nan   -nan     77.8       0.0     0.0     0.0   115.0  0.000     0.0     0.0     0.0     0.0    0
 103 1             1  1  0   -nan   -nan     32.0       0.0     0.0     0.0   115.0  0.000     0.0     0.0     0.0     0.0    0
 104 1             1  1  0   -nan   -nan      8.6       0.0     0.0     0.0   115.0  0.000     0.0     0.0     0.0     0.0    0
 105 1             1  1  0   -nan   -nan     49.6       0.0     0.0     0.0   115.0  0.000     0.0     0.0     0.0     0.0    0
 107 1             1  1  0   -nan   -nan      4.6       0.0     0.0     0.0   115.0  0.000     0.0     0.0     0.0     0.0    0
 108 1             1  1  2   -nan   -nan    112.1       0.0   117.0     nan   115.0  0.990    77.0   -24.0     0.0     0.0    0
 109 1             1  1  0   -nan   -nan     30.7       0.0     0.0     0.0   115.0  0.000     0.0     0.0     0.0     0.0    0
 110 1             1  1  0   -nan   -nan     63.0       0.0     0.0     0.0   115.0  0.000     0.0     0.0     0.0     0.0    0
 112 1             1  1  0   -nan   -nan     19.6       0.0     0.0     0.0   115.0  0.000     0.0     0.0     0.0     0.0    0
 113 1             1  1  0   -nan   -nan     26.2       0.0     0.0     0.0   115.0  0.000     0.0     0.0     0.0     0.0    0
 114 1             1  1  0   -nan   -nan     18.2       0.0     0.0     0.0   115.0  0.000     0.0     0.0     0.0     0.0    0
 115 2             1  1  0   -nan   -nan      0.0       0.0     0.0     0.0   115.0  0.000     0.0     0.0     0.0     0.0    0
 116 2             1  1  0   -nan   -nan      0.0       0.0     0.0     0.0   115.0  0.000     0.0     0.0     0.0     0.0    0
 117 2             1  1  0   -nan   -nan      0.0       0.0     0.0     0.0   115.0  0.000     0.0     0.0     0.0     3.2    0
 118 2             1  1  0   -nan   -nan     14.1     650.0     0.0     0.0   115.0  0.000     0.0     0.0     0.0     0.0    0
 119 2             1  1  2   -nan   -nan      0.0       0.0  1930.0     nan   115.0  1.044  1500.0  -500.0     0.0     0.0    0
 120 2             1  1  0   -nan   -nan    777.0     215.0     0.0     0.0   115.0  0.000     0.0     0.0     0.0     0.6    0
 121 2             1  1  0   -nan   -nan    535.0      55.0     0.0     0.0   115.0  0.000     0.0     0.0     0.0     0.0    0
 122 2             1  1  0   -nan   -nan    229.1      11.8     0.0     0.0   115.0  0.000     0.0     0.0     0.0     0.0    0
 123 2             1  1  0   -nan   -nan     78.0       1.4     0.0     0.0   115.0  0.000     0.0     0.0     0.0     0.0    0
 124 2             1  1  2   -nan   -nan    276.4      59.3   240.0     nan   115.0  1.023   120.0   -60.0     0.0     0.0    0
 125 2             1  1  2   -nan   -nan    514.8      82.7     0.0     nan   115.0  1.010   200.0   -25.0     0.0     0.0    0
 126 2             1  1  0   -nan   -nan     57.9       5.1     0.0     0.0   115.0  0.000     0.0     0.0     0.0     0.0    0
 127 2             1  1  0   -nan   -nan    380.8      37.0     0.0     0.0   230.0  0.000     0.0     0.0     0.0     0.0    0
 128 2             1  1  0   -nan   -nan      0.0       0.0     0.0     0.0   230.0  0.000     0.0     0.0     0.0     0.0    0
 129 2             1  1  0   -nan   -nan      0.0       0.0     0.0     0.0   230.0  0.000     0.0     0.0     0.0     0.0    0
 130 2             1  1  0   -nan   -nan      0.0       0.0     0.0     0.0   230.0  0.000     0.0     0.0     0.0     0.0    0
 131 2             1  1  0   -nan   -nan      0.0       0.0     0.0     0.0   230.0  0.000     0.0     0.0     0.0     0.0    0
 132 2             1  1  0   -nan   -nan      0.0       0.0     0.0     0.0   230.0  0.000     0.0     0.0     0.0     0.0    0
 133 2             1  1  0   -nan   -nan      0.0       0.0     0.0     0.0   230.0  0.000     0.0     0.0     0.0     0.0    0
 134 2             1  1  0   -nan   -nan      0.0       0.0     0.0     0.0   230.0  0.000     0.0     0.0     0.0     0.0    0
 135 2             1  1  0   -nan   -nan    169.2      41.6     0.0     0.0   230.0  0.000     0.0     0.0     0.0     0.0    0
 136 2             1  1  0   -nan   -nan     55.2      18.2     0.0     0.0   230.0  0.000     0.0     0.0     0.0     0.0    0
 137 2             1  1  0   -nan   -nan    273.6      99.8     0.0     0.0   230.0  0.000     0.0     0.0     0.0     0.0    0
 138 2             1  1  2   -nan   -nan    826.7     135.2  -192.5     nan   230.0  1.055   350.0  -125.0     0.0     0.0    0
 139 2             1  1  0   -nan   -nan    595.0      83.3     0.0     0.0   115.0  0.000     0.0     0.0     0.0     0.0    0
 140 2             1  1  0   -nan   -nan    387.7     114.7     0.0     0.0   230.0  0.000     0.0     0.0     0.0     0.0    0
 141 2             1  1  2   -nan   -nan    145.0      58.0   281.0     nan   230.0  1.051    75.0   -50.0     0.0     0.0    0
 142 2             1  1  0   -nan   -nan     56.5      24.5     0.0     0.0   230.0  0.000     0.0     0.0     0.0     0.0    0
 143 2             1  1  2   -nan   -nan     89.5      35.5   696.0     nan   230.0  1.044   300.0  -100.0     0.0     0.0    0
 144 2             1  1  0   -nan   -nan      0.0       0.0     0.0     0.0   230.0  0.000     0.0     0.0     0.0     0.0    0
 145 2             1  1  0   -nan   -nan     24.0      14.0     0.0     0.0   230.0  0.000     0.0     0.0     0.0     0.0    0
 146 2             1  1  2   -nan   -nan      0.0       0.0    84.0     nan   230.0  1.053    35.0   -15.0     0.0     0.0    0
 147 2             1  1  2   -nan   -nan      0.0       0.0   217.0     nan   230.0  1.053   100.0   -50.0     0.0     0.0    0
 148 2             1  1  0   -nan   -nan     63.0      25.0     0.0     0.0   230.0  0.000     0.0     0.0     0.0     0.0    0
 149 2             1  1  2   -nan   -nan      0.0       0.0   103.0     nan   230.0  1.073    50.0   -25.0     0.0     0.0    0
 150 2             1  1  0   -nan   -nan      0.0       0.0     0.0     0.0   230.0  0.000     0.0     0.0     0.0     0.0    0
 151 2             1  1  0   -nan   -nan      0.0       0.0     0.0     0.0   230.0  0.000     0.0     0.0     0.0     0.0    0
 152 2             1  1  2   -nan   -nan     17.0       9.0   372.0     nan   230.0  1.054   175.0   -50.0     0.0     0.0    0
 153 2             1  1  2   -nan   -nan      0.0       0.0   216.0     nan   230.0  1.044    90.0   -50.0     0.0     0.0    0
 154 2             1  1  0   -nan   -nan     70.0       5.0     0.0     0.0   115.0  0.000     0.0     0.0     0.0     0.3    0
 155 2             1  1  0   -nan   -nan    200.0      50.0     0.0     0.0   230.0  0.000     0.0     0.0     0.0     0.0    0
 156 2             1  1  2   -nan   -nan     75.0      50.0     0.0     nan   115.0  0.963    15.0   -10.0     0.0     0.0    0
 157 2             1  1  0   -nan   -nan    123.5     -24.3     0.0     0.0   230.0  0.000     0.0     0.0     0.0     0.0    0
 158 2             1  1  0   -nan   -nan      0.0       0.0     0.0     0.0   230.0  0.000     0.0     0.0     0.0     0.0    0
 159 2             1  1  0   -nan   -nan     33.0      16.5     0.0     0.0   230.0  0.000     0.0     0.0     0.0     0.0    0
 160 2             1  1  0   -nan   -nan      0.0       0.0     0.0     0.0   230.0  0.000     0.0     0.0     0.0     0.0    0
 161 2             1  1  0   -nan   -nan     35.0      15.0     0.0     0.0   230.0  0.000     0.0     0.0     0.0     0.0    0
 162 2             1  1  0   -nan   -nan     85.0      24.0     0.0     0.0   230.0  0.000     0.0     0.0     0.0     0.0    0
 163 2             1  1  0   -nan   -nan      0.0       0.4     0.0     0.0   230.0  0.000     0.0     0.0     0.0     0.0    0
 164 2             1  1  0   -nan   -nan      0.0       0.0     0.0     0.0   230.0  0.000     0.0     0.0     0.0    -2.1    0
 165 2             1  1  0   -nan   -nan      0.0       0.0     0.0     0.0   230.0  0.000     0.0     0.0     0.0     0.0    0
 166 2             1  1  0   -nan   -nan      0.0       0.0     0.0     0.0   230.0  0.000     0.0     0.0     0.0    -1.0    0
 167 2             1  1  0   -nan   -nan    299.9      95.7     0.0     0.0   230.0  0.000     0.0     0.0     0.0     0.0    0
 168 2             1  1  0   -nan   -nan      0.0       0.0     0.0     0.0   230.0  0.000     0.0     0.0     0.0     0.0    0
 169 2             1  1  0   -nan   -nan      0.0       0.0     0.0     0.0   230.0  0.000     0.0     0.0     0.0     0.0    0
 170 2             1  1  2   -nan   -nan    481.8     205.0   205.0     nan   115.0  0.929    90.0   -40.0     0.0     0.0    0
 171 2             1  1  2   -nan   -nan    763.6     291.1     0.0     nan   115.0  0.983   150.0   -50.0     0.0     0.0    0
 172 2             1  1  0   -nan   -nan     26.5       0.0     0.0     0.0   115.0  0.000     0.0     0.0     0.0     0.0    0
 173 2             1  1  0   -nan   -nan    163.5      43.0     0.0     0.0   115.0  0.000     0.0     0.0     0.0     0.5    0
 174 2             1  1  0   -nan   -nan      0.0       0.0     0.0     0.0   115.0  0.000     0.0     0.0     0.0     0.0    0
 175 2             1  1  0   -nan   -nan    176.0      83.0     0.0     0.0   115.0  0.000     0.0     0.0     0.0     0.0    0
 176 2             1  1  2   -nan   -nan      5.0       4.0   228.0     nan   115.0  1.052    90.0   -45.0     0.0     0.0    0
 177 2             1  1  2   -nan   -nan     28.0      12.0    84.0     nan   115.0  1.008    35.0   -15.0     0.0     0.0    0
 178 2             1  1  0   -nan   -nan    427.4     173.6     0.0     0.0   115.0  0.000     0.0     0.0     0.0     0.0    0
 179 2             1  1  0   -nan   -nan     74.0      29.0     0.0     0.0   115.0  0.000     0.0     0.0     0.0     0.5    0
 180 2             1  1  0   -nan   -nan     69.5      49.3     0.0     0.0   115.0  0.000     0.0     0.0     0.0     0.0    0
 181 2             1  1  0   -nan   -nan     73.4       0.0     0.0     0.0   230.0  0.000     0.0     0.0     0.0     0.0    0
 182 2             1  1  0   -nan   -nan    240.7      89.0     0.0     0.0   230.0  0.000     0.0     0.0     0.0     0.0    0
 183 2             1  1  0   -nan   -nan     40.0       4.0     0.0     0.0   115.0  0.000     0.0     0.0     0.0     0.0    0
 184 2             1  1  0   -nan   -nan    136.8      16.6     0.0     0.0   230.0  0.000     0.0     0.0     0.0     0.0    0
 185 2             1  1  2   -nan   -nan      0.0       0.0   200.0     nan   230.0  1.052    80.0   -50.0     0.0     0.0    0
 186 2             1  1  2   -nan   -nan     59.8      24.3  1200.0     nan   230.0  1.065   400.0  -100.0     0.0     0.0    0
 187 2             1  1  2   -nan   -nan     59.8      24.3  1200.0     nan   230.0  1.065   400.0  -100.0     0.0     0.0    0
 188 2             1  1  0   -nan   -nan    182.6      43.6     0.0     0.0   230.0  0.000     0.0     0.0     0.0     0.0    0
 189 3             1  1  0   -nan   -nan      7.0       2.0     0.0     0.0    66.0  0.000     0.0     0.0     0.0     0.0    0
 190 3             1  1  2   -nan   -nan      0.0       0.0   475.0     nan   345.0  1.055   300.0  -300.0     0.0    -1.5    0
 191 3             1  1  2   -nan   -nan    489.0      53.0  1973.0     nan   230.0  1.044  1000.0 -1000.0     0.0     0.0    0
 192 3             1  1  0   -nan   -nan    800.0      72.0     0.0     0.0   230.0  0.000     0.0     0.0     0.0     0.0    0
 193 3             1  1  0   -nan   -nan      0.0       0.0     0.0     0.0    66.0  0.000     0.0     0.0     0.0     0.0    0
 194 3             1  1  0   -nan   -nan      0.0       0.0     0.0     0.0   345.0  0.000     0.0     0.0     0.0     0.0    0
 195 3             1  1  0   -nan   -nan      0.0       0.0     0.0     0.0   345.0  0.000     0.0     0.0     0.0     0.0    0
 196 3             1  1  0   -nan   -nan     10.0       3.0     0.0     0.0   115.0  0.000     0.0     0.0     0.0     0.0    0
 197 3             1  1  0   -nan   -nan     43.0      14.0     0.0     0.0   115.0  0.000     0.0     0.0     0.0     0.0    0
 198 3             1  1  2   -nan   -nan     64.0      21.0   424.0     nan   115.0  1.015   260.0  -260.0     0.0     0.0    0
 199 3             1  1  0   -nan   -nan     35.0      12.0     0.0     0.0   115.0  0.000     0.0     0.0     0.0     0.0    0
 200 3             1  1  0   -nan   -nan     27.0      12.0     0.0     0.0   115.0  0.000     0.0     0.0     0.0     0.0    0
 201 1             1  1  0   -nan   -nan     41.0      14.0     0.0     0.0    66.0  0.000     0.0     0.0     0.0     0.0    0
 202 3             1  1  0   -nan   -nan     38.0      13.0     0.0     0.0    66.0  0.000     0.0     0.0     0.0     0.0    0
 203 3             1  1  0   -nan   -nan     42.0      14.0     0.0     0.0   115.0  0.000     0.0     0.0     0.0     0.0    0
 204 3             1  1  0   -nan   -nan     72.0      24.0     0.0     0.0    66.0  0.000     0.0     0.0     0.0     0.0    0
 205 3             1  1  0   -nan   -nan      0.0      -5.0     0.0     0.0    66.0  0.000     0.0     0.0     0.0     0.0    0
 206 3             1  1  0   -nan   -nan     12.0       2.0     0.0     0.0    66.0  0.000     0.0     0.0     0.0     0.0    0
 207 1             1  1  0   -nan   -nan    -21.0     -14.2     0.0     0.0    66.0  0.000     0.0     0.0     0.0     0.0    0
 208 3             1  1  0   -nan   -nan      7.0       2.0     0.0     0.0    66.0  0.000     0.0     0.0     0.0     0.0    0
 209 3             1  1  0   -nan   -nan     38.0      13.0     0.0     0.0    66.0  0.000     0.0     0.0     0.0     0.0    0
 210 3             1  1  0   -nan   -nan      0.0       0.0     0.0     0.0   115.0  0.000     0.0     0.0     0.0     0.0    0
 211 3             1  1  0   -nan   -nan     96.0       7.0     0.0     0.0   115.0  0.000     0.0     0.0     0.0     0.0    0
 212 3             1  1  0   -nan   -nan      0.0       0.0     0.0     0.0   138.0  0.000     0.0     0.0     0.0     0.0    0
 213 3             1  1  2   -nan   -nan      0.0       0.0   272.0     nan    16.5  1.010   150.0  -150.0     0.0     0.0    0
 214 3             1  1  0   -nan   -nan     22.0      16.0     0.0     0.0   138.0  0.000     0.0     0.0     0.0     0.0    0
 215 3             1  1  0   -nan   -nan     47.0      26.0     0.0     0.0   138.0  0.000     0.0     0.0     0.0     0.0    0
 216 3             1  1  0   -nan   -nan    176.0     105.0     0.0     0.0   138.0  0.000     0.0     0.0     0.0     0.0    0
 217 3             1  1  0   -nan   -nan    100.0      75.0     0.0     0.0   138.0  0.000     0.0     0.0     0.0     0.0    0
 218 3             1  1  0   -nan   -nan    131.0      96.0     0.0     0.0   138.0  0.000     0.0     0.0     0.0     0.0    0
 219 3             1  1  0   -nan   -nan      0.0       0.0     0.0     0.0   345.0  0.000     0.0     0.0     0.0     0.0    0
 220 3             1  1  2   -nan   -nan    285.0     100.0   100.0     nan   138.0  1.008    60.0   -60.0     0.0     0.0    0
 221 3             1  1  2   -nan   -nan    171.0      70.0   450.0     nan   138.0  1.000   320.0  -320.0     0.0     0.0    0
 222 3             1  1  2   -nan   -nan    328.0     188.0   250.0     nan    20.0  1.050   300.0  -300.0     0.0     0.0    0
 223 3             1  1  0   -nan   -nan    428.0     232.0     0.0     0.0   138.0  0.000     0.0     0.0     0.0     0.0    0
 224 3             1  1  0   -nan   -nan    173.0      99.0     0.0     0.0   230.0  0.000     0.0     0.0     0.0     0.0    0
 225 3             1  1  0   -nan   -nan    410.0      40.0     0.0     0.0   230.0  0.000     0.0     0.0     0.0     0.0    0
 226 3             1  1  0   -nan   -nan      0.0       0.0     0.0     0.0   230.0  0.000     0.0     0.0     0.0     0.0    0
 227 3             1  1  2   -nan   -nan    538.0     369.0   303.0     nan    27.0  1.000   300.0  -300.0     0.0     0.0    0
 228 3             1  1  0   -nan   -nan    223.0     148.0     0.0     0.0   138.0  0.000     0.0     0.0     0.0     0.0    0
 229 3             1  1  0   -nan   -nan     96.0      46.0     0.0     0.0   138.0  0.000     0.0     0.0     0.0     0.0    0
 230 3             1  1  2   -nan   -nan      0.0       0.0   345.0     nan    20.0  1.040   250.0  -250.0     0.0     0.0    0
 231 3             1  1  0   -nan   -nan    159.0     107.0     0.0     0.0   345.0  0.000     0.0     0.0     0.0    -3.0    0
 232 3             1  1  0   -nan   -nan    448.0     143.0     0.0     0.0   138.0  0.000     0.0     0.0     0.0     0.0    0
 233 3             1  1  2   -nan   -nan    404.0     212.0   300.0     nan    66.0  1.000   500.0  -500.0     0.0     0.0    0
 234 3             1  1  0   -nan   -nan    572.0     244.0     0.0     0.0   138.0  0.000     0.0     0.0     0.0     0.0    0
 235 3             1  1  0   -nan   -nan    269.0     157.0     0.0     0.0   138.0  0.000     0.0     0.0     0.0     0.0    0
 236 3             1  1  2   -nan   -nan      0.0       0.0   600.0     nan    20.0  1.016   300.0  -300.0     0.0     0.0    0
 237 3             1  1  0   -nan   -nan      0.0       0.0     0.0     0.0   345.0  0.000     0.0     0.0     0.0     0.0    0
 238 3             1  1  2   -nan   -nan    255.0     149.0   250.0     nan   138.0  1.010   200.0  -200.0     0.0    -1.5    0
 239 3             1  1  2   -nan   -nan      0.0       0.0   550.0     nan   138.0  1.000   400.0  -400.0     0.0     0.0    0
 240 3             1  1  0   -nan   -nan      0.0       0.0     0.0     0.0   230.0  0.000     0.0     0.0     0.0    -1.4    0
 241 3             1  1  2   -nan   -nan      0.0       0.0   575.4     nan    20.0  1.050   600.0  -600.0     0.0     0.0    0
 242 3             1  1  2   -nan   -nan      0.0       0.0   170.0     nan   138.0  0.993   100.0    40.0     0.0     0.0    0
 243 3             1  1  2   -nan   -nan      8.0       3.0    84.0     nan    66.0  1.010    80.0    40.0     0.0     0.0    0
 244 3             1  1  0   -nan   -nan      0.0       0.0     0.0     0.0    66.0  0.000     0.0     0.0     0.0     0.0    0
 245 3             1  1  0   -nan   -nan     61.0      30.0     0.0     0.0    66.0  0.000     0.0     0.0     0.0     0.0    0
 246 3             1  1  0   -nan   -nan     77.0      33.0     0.0     0.0    66.0  0.000     0.0     0.0     0.0     0.0    0
 247 3             1  1  0   -nan   -nan     61.0      30.0     0.0     0.0    66.0  0.000     0.0     0.0     0.0     0.0    0
 248 3             1  1  0   -nan   -nan     29.0      14.0     0.0     0.0    66.0  0.000     0.0     0.0     0.0     0.5    0
 249 3             1  1  0   -nan   -nan     29.0      14.0     0.0     0.0    66.0  0.000     0.0     0.0     0.0     0.0    0
 250 3             1  1  0   -nan   -nan    -23.0     -17.0     0.0     0.0    66.0  0.000     0.0     0.0     0.0     0.0    0
 281 3             1  1  0   -nan   -nan    -33.1     -29.4     0.0     0.0   230.0  0.000     0.0     0.0     0.0     0.0    0
 319 1             1  1  0   -nan   -nan    115.8     -24.0     0.0     0.0   230.0  0.000     0.0     0.0     0.0     0.0    0
 320 1             1  1  0   -nan   -nan      2.4     -12.6     0.0     0.0   115.0  0.000     0.0     0.0     0.0     0.0    0
 322 1             1  1  0   -nan   -nan      2.4      -3.9     0.0     0.0   115.0  0.000     0.0     0.0     0.0     0.0    0