TAPE
 09/05/17 Generated with PFLOW 100.00 2017 S IEEE 118 Bus Test Case     
BUS DATA FOLLOWS                    118 ITEMS
   1 Riversde  V2  0  1  2 .95500 10.973 51.00000 27.00000 0.000000 -3.1041 0.00000 .95500 15.0000 -5.0000 0.00000 0.00000    0
   2 Pokagon   V2  0  1  0 .97139 11.513 20.00000 9.000000 0.000000 0.00000 0.00000 .97139 0.00000 0.00000 0.00000 0.00000    0
   3 HickryCk  V2  0  1  0 .96769 11.856 39.00000 10.00000 0.000000 0.00000 0.00000 .96769 0.00000 0.00000 0.00000 0.00000    0
   4 NwCarlsl  V2  0  1  2 .99800 15.574 30.00000 12.00000 -9.00000 -15.010 0.00000 .99800 300.000 -300.00 0.00000 0.00000    0
   5 Olive     V2  0  1  0 1.0020 16.019 0.000000 0.000000 0.000000 0.00000 0.00000 1.0020 0.00000 0.00000 0.00000 -.40000    0
   6 Kankakee  V2  0  1  2 .99000 13.292 52.00000 22.00000 0.000000 15.9298 0.00000 .99000 50.0000 -13.000 0.00000 0.00000    0
   7 JacksnRd  V2  0  1  0 .98933 12.847 19.00000 2.000000 0.000000 0.00000 0.00000 .98933 0.00000 0.00000 0.00000 0.00000    0
   8 Olive     V1  0  1  2 1.0150 21.041 0.000000 0.000000 -28.0000 63.1381 0.00000 1.0150 300.000 -300.00 0.00000 0.00000    0
   9 Bequine   V1  0  1  0 1.0429 28.295 0.000000 0.000000 0.000000 0.00000 0.00000 1.0429 0.00000 0.00000 0.00000 0.00000    0
  10 Breed     V1  0  1  2 1.0500 35.876 0.000000 0.000000 450.0000 -51.042 0.00000 1.0500 200.000 -147.00 0.00000 0.00000    0
  11 SouthBnd  V2  0  1  0 .98509 13.006 70.00000 23.00000 0.000000 0.00000 0.00000 .98509 0.00000 0.00000 0.00000 0.00000    0
  12 TwinBrch  V2  0  1  2 .99000 12.489 47.00000 10.00000 85.00000 91.2917 0.00000 .99000 120.000 -35.000 0.00000 0.00000    0
  13 Concord   V2  0  1  0 .96830 11.630 34.00000 16.00000 0.000000 0.00000 0.00000 .96830 0.00000 0.00000 0.00000 0.00000    0
  14 GoshenJt  V2  0  1  0 .98359 11.771 14.00000 1.000000 0.000000 0.00000 0.00000 .98359 0.00000 0.00000 0.00000 0.00000    0
  15 FtWayne   V2  0  1  2 .97000 11.474 90.00000 30.00000 0.000000 7.16037 0.00000 .97000 30.0000 -10.000 0.00000 0.00000    0
  16 N. E.     V2  0  1  0 .98390 12.187 25.00000 10.00000 0.000000 0.00000 0.00000 .98390 0.00000 0.00000 0.00000 0.00000    0
  17 Sorenson  V2  0  1  0 .99509 13.995 11.00000 3.000000 0.000000 0.00000 0.00000 .99509 0.00000 0.00000 0.00000 0.00000    0
  18 McKinley  V2  0  1  2 .97300 11.781 60.00000 34.00000 0.000000 28.4263 0.00000 .97300 50.0000 -16.000 0.00000 0.00000    0
  19 Lincoln   V2  0  1  2 .96200 11.315 45.00000 25.00000 0.000000 -14.274 0.00000 .96200 24.0000 -8.0000 0.00000 0.00000    0
  20 Adams     V2  0  1  0 .95693 12.191 18.00000 3.000000 0.000000 0.00000 0.00000 .95693 0.00000 0.00000 0.00000 0.00000    0
  21 Jay       V2  0  1  0 .95772 13.778 14.00000 8.000000 0.000000 0.00000 0.00000 .95772 0.00000 0.00000 0.00000 0.00000    0
  22 Randolph  V2  0  1  0 .96902 16.332 10.00000 5.000000 0.000000 0.00000 0.00000 .96902 0.00000 0.00000 0.00000 0.00000    0
  23 CollCrnr  V2  0  1  0 .99947 21.249 7.000000 3.000000 0.000000 0.00000 0.00000 .99947 0.00000 0.00000 0.00000 0.00000    0
  24 Trenton   V2  0  1  2 .99200 21.114 0.000000 0.000000 -13.0000 -14.908 0.00000 .99200 300.000 -300.00 0.00000 0.00000    0
  25 TannrsCk  V2  0  1  2 1.0500 28.180 0.000000 0.000000 220.0000 50.0433 0.00000 1.0500 140.000 -47.000 0.00000 0.00000    0
  26 TannrsCk  V1  0  1  2 1.0150 29.960 0.000000 0.000000 314.0000 10.1245 0.00000 1.0150 1000.00 -1000.0 0.00000 0.00000    0
  27 Madison   V2  0  1  2 .96800 15.604 62.00000 13.00000 -9.00000 3.98235 0.00000 .96800 300.000 -300.00 0.00000 0.00000    0
  28 Mullin    V2  0  1  0 .96157 13.879 17.00000 7.000000 0.000000 0.00000 0.00000 .96157 0.00000 0.00000 0.00000 0.00000    0
  29 Grant     V2  0  1  0 .96322 12.885 24.00000 4.000000 0.000000 0.00000 0.00000 .96322 0.00000 0.00000 0.00000 0.00000    0
  30 Sorenson  V1  0  1  0 .98533 19.034 0.000000 0.000000 0.000000 0.00000 0.00000 .98533 0.00000 0.00000 0.00000 0.00000    0
  31 DeerCrk   V2  0  1  2 .96700 13.002 43.00000 27.00000 7.000000 32.5860 0.00000 .96700 300.000 -300.00 0.00000 0.00000    0
  32 Delaware  V2  0  1  2 .96300 15.061 59.00000 23.00000 0.000000 -16.285 0.00000 .96300 42.0000 -14.000 0.00000 0.00000    0
  33 Haviland  V2  0  1  0 .97093 10.854 23.00000 9.000000 0.000000 0.00000 0.00000 .97093 0.00000 0.00000 0.00000 0.00000    0
  34 Rockhill  V2  0  1  2 .98400 11.511 59.00000 26.00000 0.000000 -20.827 0.00000 .98400 24.0000 -8.0000 0.00000 .140000    0
  35 WestLima  V2  0  1  0 .98045 11.055 33.00000 9.000000 0.000000 0.00000 0.00000 .98045 0.00000 0.00000 0.00000 0.00000    0
  36 Sterling  V2  0  1  2 .98000 11.056 31.00000 17.00000 0.000000 7.72506 0.00000 .98000 24.0000 -8.0000 0.00000 0.00000    0
  37 EastLima  V2  0  1  0 .99066 11.967 0.000000 0.000000 0.000000 0.00000 0.00000 .99066 0.00000 0.00000 0.00000 -.25000    0
  38 EastLima  V1  0  1  0 .96129 17.108 0.000000 0.000000 0.000000 0.00000 0.00000 .96129 0.00000 0.00000 0.00000 0.00000    0
  39 NwLibrty  V2  0  1  0 .96996 8.5766 27.00000 11.00000 0.000000 0.00000 0.00000 .96996 0.00000 0.00000 0.00000 0.00000    0
  40 West End  V2  0  1  2 .97000 7.4955 20.00000 23.00000 -46.0000 28.4541 0.00000 .97000 300.000 -300.00 0.00000 0.00000    0
  41 S.Tiffin  V2  0  1  0 .96683 7.0516 37.00000 10.00000 0.000000 0.00000 0.00000 .96683 0.00000 0.00000 0.00000 0.00000    0
  42 Howard    V2  0  1  2 .98500 8.6529 37.00000 23.00000 -59.0000 41.0296 0.00000 .98500 300.000 -300.00 0.00000 0.00000    0
  43 S.Kenton  V2  0  1  0 .97712 11.460 18.00000 7.000000 0.000000 0.00000 0.00000 .97712 0.00000 0.00000 0.00000 0.00000    0
  44 WMVernon  V2  0  1  0 .98444 13.943 16.00000 8.000000 0.000000 0.00000 0.00000 .98444 0.00000 0.00000 0.00000 .100000    0
  45 N.Newark  V2  0  1  0 .98638 15.773 53.00000 22.00000 0.000000 0.00000 0.00000 .98638 0.00000 0.00000 0.00000 .100000    0
  46 W.Lancst  V2  0  1  2 1.0050 18.576 28.00000 10.00000 19.00000 -5.0295 0.00000 1.0050 100.000 -100.00 0.00000 .100000    0
  47 Crooksvl  V2  0  1  0 1.0171 20.799 34.00000 0.000000 0.000000 0.00000 0.00000 1.0171 0.00000 0.00000 0.00000 0.00000    0
  48 Zanesvll  V2  0  1  0 1.0206 20.019 20.00000 11.00000 0.000000 0.00000 0.00000 1.0206 0.00000 0.00000 0.00000 .150000    0
  49 Philo     V2  0  1  2 1.0250 21.022 87.00000 30.00000 204.0000 115.845 0.00000 1.0250 210.000 -85.000 0.00000 0.00000    0
  50 WCambrdg  V2  0  1  0 1.0011 18.983 17.00000 4.000000 0.000000 0.00000 0.00000 1.0011 0.00000 0.00000 0.00000 0.00000    0
  51 Newcmrst  V2  0  1  0 .96688 16.364 17.00000 8.000000 0.000000 0.00000 0.00000 .96688 0.00000 0.00000 0.00000 0.00000    0
  52 SCoshoct  V2  0  1  0 .95682 15.411 18.00000 5.000000 0.000000 0.00000 0.00000 .95682 0.00000 0.00000 0.00000 0.00000    0
  53 Wooster   V2  0  1  0 .94598 14.436 23.00000 11.00000 0.000000 0.00000 0.00000 .94598 0.00000 0.00000 0.00000 0.00000    0
  54 Torrey    V2  0  1  2 .95500 15.348 113.0000 32.00000 48.00000 3.90106 0.00000 .95500 300.000 -300.00 0.00000 0.00000    0
  55 Wagenhls  V2  0  1  2 .95200 15.058 63.00000 22.00000 0.000000 4.66417 0.00000 .95200 23.0000 -8.0000 0.00000 0.00000    0
  56 Sunnysde  V2  0  1  2 .95400 15.245 84.00000 18.00000 0.000000 -2.2857 0.00000 .95400 15.0000 -8.0000 0.00000 0.00000    0
  57 WNwPhil1  V2  0  1  0 .97058 16.449 12.00000 3.000000 0.000000 0.00000 0.00000 .97058 0.00000 0.00000 0.00000 0.00000    0
  58 WNwPhil2  V2  0  1  0 .95904 15.592 12.00000 3.000000 0.000000 0.00000 0.00000 .95904 0.00000 0.00000 0.00000 0.00000    0
  59 Tidd      V2  0  1  2 .98500 19.448 277.0000 113.0000 155.0000 76.8340 0.00000 .98500 180.000 -60.000 0.00000 0.00000    0
  60 SWKammer  V2  0  1  0 .99316 23.230 78.00000 3.000000 0.000000 0.00000 0.00000 .99316 0.00000 0.00000 0.00000 0.00000    0
  61 W.Kammer  V2  0  1  2 .99500 24.121 0.000000 0.000000 160.0000 -40.394 0.00000 .99500 300.000 -100.00 0.00000 0.00000    0
  62 Natrium   V2  0  1  2 .99800 23.505 77.00000 14.00000 0.000000 1.25837 0.00000 .99800 20.0000 -20.000 0.00000 0.00000    0
  63 Tidd      V1  0  1  0 .96874 22.827 0.000000 0.000000 0.000000 0.00000 0.00000 .96874 0.00000 0.00000 0.00000 0.00000    0
  64 Kammer    V1  0  1  0 .98374 24.593 0.000000 0.000000 0.000000 0.00000 0.00000 .98374 0.00000 0.00000 0.00000 0.00000    0
  65 Muskngum  V1  0  1  2 1.0050 27.719 0.000000 0.000000 391.0000 81.5101 0.00000 1.0050 200.000 -67.000 0.00000 0.00000    0
  66 Muskngum  V2  0  1  2 1.0500 27.559 39.00000 18.00000 392.0000 -1.9566 0.00000 1.0500 200.000 -67.000 0.00000 0.00000    0
  67 Summerfl  V2  0  1  0 1.0197 24.919 28.00000 7.000000 0.000000 0.00000 0.00000 1.0197 0.00000 0.00000 0.00000 0.00000    0
  68 Sporn     V1  0  1  0 1.0032 27.598 0.000000 0.000000 0.000000 0.00000 0.00000 1.0032 0.00000 0.00000 0.00000 0.00000    0
  69 Sporn     V2  0  1  3 1.0350 30.000 0.000000 0.000000 513.8628 -82.424 0.00000 1.0350 300.000 -300.00 0.00000 0.00000    0
  70 Portsmth  V2  0  1  2 .98400 22.618 66.00000 20.00000 0.000000 9.66928 0.00000 .98400 32.0000 -10.000 0.00000 0.00000    0
  71 NPortsmt  V2  0  1  0 .98684 22.207 0.000000 0.000000 0.000000 0.00000 0.00000 .98684 0.00000 0.00000 0.00000 0.00000    0
  72 Hillsbro  V2  0  1  2 .98000 21.109 0.000000 0.000000 -12.0000 -11.130 0.00000 .98000 100.000 -100.00 0.00000 0.00000    0
  73 Sargents  V2  0  1  2 .99100 21.995 0.000000 0.000000 -6.00000 9.65137 0.00000 .99100 100.000 -100.00 0.00000 0.00000    0
  74 Bellefnt  V2  0  1  2 .95800 21.669 68.00000 27.00000 0.000000 -5.6252 0.00000 .95800 9.00000 -6.0000 0.00000 .120000    0
  75 SthPoint  V2  0  1  0 .96733 22.930 47.00000 11.00000 0.000000 0.00000 0.00000 .96733 0.00000 0.00000 0.00000 0.00000    0
  76 Darrah    V2  0  1  2 .94300 21.799 68.00000 36.00000 0.000000 5.26810 0.00000 .94300 23.0000 -8.0000 0.00000 0.00000    0
  77 Turner    V2  0  1  2 1.0060 26.751 61.00000 28.00000 0.000000 12.1704 0.00000 1.0060 70.0000 -20.000 0.00000 0.00000    0
  78 Chemical  V2  0  1  0 1.0034 26.447 71.00000 26.00000 0.000000 0.00000 0.00000 1.0034 0.00000 0.00000 0.00000 0.00000    0
  79 CapitlHl  V2  0  1  0 1.0092 26.745 39.00000 32.00000 0.000000 0.00000 0.00000 1.0092 0.00000 0.00000 0.00000 .200000    0
  80 CabinCrk  V2  0  1  2 1.0400 28.990 130.0000 26.00000 477.0000 105.466 0.00000 1.0400 280.000 -165.00 0.00000 0.00000    0
  81 Kanawha   V1  0  1  0 .99681 28.145 0.000000 0.000000 0.000000 0.00000 0.00000 .99681 0.00000 0.00000 0.00000 0.00000    0
  82 Logan     V2  0  1  0 .98855 27.272 54.00000 27.00000 0.000000 0.00000 0.00000 .98855 0.00000 0.00000 0.00000 .200000    0
  83 Sprigg    V2  0  1  0 .98438 28.464 20.00000 10.00000 0.000000 0.00000 0.00000 .98438 0.00000 0.00000 0.00000 .100000    0
  84 BetsyLne  V2  0  1  0 .97970 31.000 11.00000 7.000000 0.000000 0.00000 0.00000 .97970 0.00000 0.00000 0.00000 0.00000    0
  85 BeaverCk  V2  0  1  2 .98500 32.556 24.00000 15.00000 0.000000 -5.6066 0.00000 .98500 23.0000 -8.0000 0.00000 0.00000    0
  86 Hazard    V2  0  1  0 .98669 31.186 21.00000 10.00000 0.000000 0.00000 0.00000 .98669 0.00000 0.00000 0.00000 0.00000    0
  87 Pinevlle  V3  0  1  2 1.0150 31.445 0.000000 0.000000 4.000000 11.0216 0.00000 1.0150 1000.00 -100.00 0.00000 0.00000    0
  88 Fremont   V2  0  1  0 .98745 35.690 48.00000 10.00000 0.000000 0.00000 0.00000 .98745 0.00000 0.00000 0.00000 0.00000    0
  89 ClinchRv  V2  0  1  2 1.0050 39.748 0.000000 0.000000 607.0000 -5.9050 0.00000 1.0050 300.000 -210.00 0.00000 0.00000    0
  90 Holston   V2  0  1  2 .98500 33.338 78.00000 42.00000 -85.0000 59.3084 0.00000 .98500 300.000 -300.00 0.00000 0.00000    0
  91 HolstonT  V2  0  1  2 .98000 33.351 0.000000 0.000000 -10.0000 -13.088 0.00000 .98000 100.000 -100.00 0.00000 0.00000    0
  92 Saltvlle  V2  0  1  2 .99000 33.881 65.00000 10.00000 0.000000 -13.956 0.00000 .99000 9.00000 -3.0000 0.00000 0.00000    0
  93 Tazewell  V2  0  1  0 .98543 30.849 12.00000 7.000000 0.000000 0.00000 0.00000 .98543 0.00000 0.00000 0.00000 0.00000    0
  94 Switchbk  V2  0  1  0 .98983 28.682 30.00000 16.00000 0.000000 0.00000 0.00000 .98983 0.00000 0.00000 0.00000 0.00000    0
  95 Caldwell  V2  0  1  0 .98033 27.710 42.00000 31.00000 0.000000 0.00000 0.00000 .98033 0.00000 0.00000 0.00000 0.00000    0
  96 Baileysv  V2  0  1  0 .99228 27.543 38.00000 15.00000 0.000000 0.00000 0.00000 .99228 0.00000 0.00000 0.00000 0.00000    0
  97 Sundial   V2  0  1  0 1.0112 27.916 15.00000 9.000000 0.000000 0.00000 0.00000 1.0112 0.00000 0.00000 0.00000 0.00000    0
  98 Bradley   V2  0  1  0 1.0235 27.433 34.00000 8.000000 0.000000 0.00000 0.00000 1.0235 0.00000 0.00000 0.00000 0.00000    0
  99 Hinton    V2  0  1  2 1.0100 27.067 0.000000 0.000000 -42.0000 -17.536 0.00000 1.0100 100.000 -100.00 0.00000 0.00000    0
 100 Glen Lyn  V2  0  1  2 1.0170 28.059 37.00000 18.00000 252.0000 95.5521 0.00000 1.0170 155.000 -50.000 0.00000 0.00000    0
 101 Wythe     V2  0  1  0 .99142 29.647 22.00000 15.00000 0.000000 0.00000 0.00000 .99142 0.00000 0.00000 0.00000 0.00000    0
 102 Smythe    V2  0  1  0 .98913 32.365 5.000000 3.000000 0.000000 0.00000 0.00000 .98913 0.00000 0.00000 0.00000 0.00000    0
 103 Claytor   V2  0  1  2 1.0100 24.318 23.00000 16.00000 40.00000 75.4224 0.00000 1.0100 40.0000 -15.000 0.00000 0.00000    0
 104 Hancock   V2  0  1  2 .97100 21.748 38.00000 25.00000 0.000000 2.38825 0.00000 .97100 23.0000 -8.0000 0.00000 0.00000    0
 105 Roanoke   V2  0  1  2 .96500 20.644 31.00000 26.00000 0.000000 -18.335 0.00000 .96500 23.0000 -8.0000 0.00000 .200000    0
 106 Cloverdl  V2  0  1  0 .96115 20.383 43.00000 16.00000 0.000000 0.00000 0.00000 .96115 0.00000 0.00000 0.00000 0.00000    0
 107 Reusens   V2  0  1  2 .95200 17.583 28.00000 12.00000 -22.0000 6.55782 0.00000 .95200 200.000 -200.00 0.00000 .060000    0
 108 Blaine    V2  0  1  0 .96621 19.443 2.000000 1.000000 0.000000 0.00000 0.00000 .96621 0.00000 0.00000 0.00000 0.00000    0
 109 Franklin  V2  0  1  0 .96703 18.991 8.000000 3.000000 0.000000 0.00000 0.00000 .96703 0.00000 0.00000 0.00000 0.00000    0
 110 Fieldale  V2  0  1  2 .97300 18.144 39.00000 30.00000 0.000000 .280834 0.00000 .97300 23.0000 -8.0000 0.00000 .060000    0
 111 DanRiver  V2  0  1  2 .98000 19.789 0.000000 0.000000 36.00000 -1.8438 0.00000 .98000 1000.00 -100.00 0.00000 0.00000    0
 112 Danville  V2  0  1  2 .97500 15.045 25.00000 13.00000 -43.0000 41.5117 0.00000 .97500 1000.00 -100.00 0.00000 0.00000    0
 113 Deer Crk  V2  0  1  2 .99300 13.993 0.000000 0.000000 -6.00000 6.75250 0.00000 .99300 200.000 -100.00 0.00000 0.00000    0
 114 WMedford  V2  0  1  0 .96009 14.726 8.000000 3.000000 0.000000 0.00000 0.00000 .96009 0.00000 0.00000 0.00000 0.00000    0
 115 Medford   V2  0  1  0 .96002 14.718 22.00000 7.000000 0.000000 0.00000 0.00000 .96002 0.00000 0.00000 0.00000 0.00000    0
 116 KygerCrk  V2  0  1  2 1.0050 27.163 0.000000 0.000000 -184.000 51.3225 0.00000 1.0050 1000.00 -1000.0 0.00000 0.00000    0
 117 Corey     V2  0  1  0 .97382 10.948 20.00000 8.000000 0.000000 0.00000 0.00000 .97382 0.00000 0.00000 0.00000 0.00000    0
 118 WHuntngd  V2  0  1  0 .94944 21.942 33.00000 15.00000 0.000000 0.00000 0.00000 .94944 0.00000 0.00000 0.00000 0.00000    0
-999
BRANCH DATA FOLLOWS                 186 ITEMS
   1    2  0  1 1 0 .03030000 .09990000 .02540000     0                0 0  0.0000 0.00000 0.0000 0.0000 0.0000 0.0000 0.0000
   1    3  0  1 1 0 .01290000 .04240000 .01082000     0                0 0  0.0000 0.00000 0.0000 0.0000 0.0000 0.0000 0.0000
   4    5  0  1 1 0 .00176000 .00798000 .00210000     0                0 0  0.0000 0.00000 0.0000 0.0000 0.0000 0.0000 0.0000
   3    5  0  1 1 0 .02410000 .10800000 .02840000     0                0 0  0.0000 0.00000 0.0000 0.0000 0.0000 0.0000 0.0000
   5    6  0  1 1 0 .01190000 .05400000 .01426000     0                0 0  0.0000 0.00000 0.0000 0.0000 0.0000 0.0000 0.0000
   6    7  0  1 1 0 .00459000 .02080000 .00550000     0                0 0  0.0000 0.00000 0.0000 0.0000 0.0000 0.0000 0.0000
   8    9  0  1 1 0 .00244000 .03050000 1.1620000     0                0 0  0.0000 0.00000 0.0000 0.0000 0.0000 0.0000 0.0000
   8    5  0  1 1 1 0.0000000 .02670000 0.0000000     0                0 0  .98500 0.00000 0.0000 0.0000 0.0000 0.0000 0.0000
   9   10  0  1 1 0 .00258000 .03220000 1.2300000     0                0 0  0.0000 0.00000 0.0000 0.0000 0.0000 0.0000 0.0000
   4   11  0  1 1 0 .02090000 .06880000 .01748000     0                0 0  0.0000 0.00000 0.0000 0.0000 0.0000 0.0000 0.0000
   5   11  0  1 1 0 .02030000 .06820000 .01738000     0                0 0  0.0000 0.00000 0.0000 0.0000 0.0000 0.0000 0.0000
  11   12  0  1 1 0 .00595000 .01960000 .00502000     0                0 0  0.0000 0.00000 0.0000 0.0000 0.0000 0.0000 0.0000
   2   12  0  1 1 0 .01870000 .06160000 .01572000     0                0 0  0.0000 0.00000 0.0000 0.0000 0.0000 0.0000 0.0000
   3   12  0  1 1 0 .04840000 .16000000 .04060000     0                0 0  0.0000 0.00000 0.0000 0.0000 0.0000 0.0000 0.0000
   7   12  0  1 1 0 .00862000 .03400000 .00874000     0                0 0  0.0000 0.00000 0.0000 0.0000 0.0000 0.0000 0.0000
  11   13  0  1 1 0 .02225000 .07310000 .01876000     0                0 0  0.0000 0.00000 0.0000 0.0000 0.0000 0.0000 0.0000
  12   14  0  1 1 0 .02150000 .07070000 .01816000     0                0 0  0.0000 0.00000 0.0000 0.0000 0.0000 0.0000 0.0000
  13   15  0  1 1 0 .07440000 .24440000 .06268000     0                0 0  0.0000 0.00000 0.0000 0.0000 0.0000 0.0000 0.0000
  14   15  0  1 1 0 .05950000 .19500000 .05020000     0                0 0  0.0000 0.00000 0.0000 0.0000 0.0000 0.0000 0.0000
  12   16  0  1 1 0 .02120000 .08340000 .02140000     0                0 0  0.0000 0.00000 0.0000 0.0000 0.0000 0.0000 0.0000
  15   17  0  1 1 0 .01320000 .04370000 .04440000     0                0 0  0.0000 0.00000 0.0000 0.0000 0.0000 0.0000 0.0000
  16   17  0  1 1 0 .04540000 .18010000 .04660000     0                0 0  0.0000 0.00000 0.0000 0.0000 0.0000 0.0000 0.0000
  17   18  0  1 1 0 .01230000 .05050000 .01298000     0                0 0  0.0000 0.00000 0.0000 0.0000 0.0000 0.0000 0.0000
  18   19  0  1 1 0 .01119000 .04930000 .01142000     0                0 0  0.0000 0.00000 0.0000 0.0000 0.0000 0.0000 0.0000
  19   20  0  1 1 0 .02520000 .11700000 .02980000     0                0 0  0.0000 0.00000 0.0000 0.0000 0.0000 0.0000 0.0000
  15   19  0  1 1 0 .01200000 .03940000 .01010000     0                0 0  0.0000 0.00000 0.0000 0.0000 0.0000 0.0000 0.0000
  20   21  0  1 1 0 .01830000 .08490000 .02160000     0                0 0  0.0000 0.00000 0.0000 0.0000 0.0000 0.0000 0.0000
  21   22  0  1 1 0 .02090000 .09700000 .02460000     0                0 0  0.0000 0.00000 0.0000 0.0000 0.0000 0.0000 0.0000
  22   23  0  1 1 0 .03420000 .15900000 .04040000     0                0 0  0.0000 0.00000 0.0000 0.0000 0.0000 0.0000 0.0000
  23   24  0  1 1 0 .01350000 .04920000 .04980000     0                0 0  0.0000 0.00000 0.0000 0.0000 0.0000 0.0000 0.0000
  23   25  0  1 1 0 .01560000 .08000000 .08640000     0                0 0  0.0000 0.00000 0.0000 0.0000 0.0000 0.0000 0.0000
  26   25  0  1 1 1 0.0000000 .03820000 0.0000000     0                0 0  .96000 0.00000 0.0000 0.0000 0.0000 0.0000 0.0000
  25   27  0  1 1 0 .03180000 .16300000 .17640000     0                0 0  0.0000 0.00000 0.0000 0.0000 0.0000 0.0000 0.0000
  27   28  0  1 1 0 .01913000 .08550000 .02160000     0                0 0  0.0000 0.00000 0.0000 0.0000 0.0000 0.0000 0.0000
  28   29  0  1 1 0 .02370000 .09430000 .02380000     0                0 0  0.0000 0.00000 0.0000 0.0000 0.0000 0.0000 0.0000
  30   17  0  1 1 1 0.0000000 .03880000 0.0000000     0                0 0  .96000 0.00000 0.0000 0.0000 0.0000 0.0000 0.0000
   8   30  0  1 1 0 .00431000 .05040000 .51400000     0                0 0  0.0000 0.00000 0.0000 0.0000 0.0000 0.0000 0.0000
  26   30  0  1 1 0 .00799000 .08600000 .90800000     0                0 0  0.0000 0.00000 0.0000 0.0000 0.0000 0.0000 0.0000
  17   31  0  1 1 0 .04740000 .15630000 .03990000     0                0 0  0.0000 0.00000 0.0000 0.0000 0.0000 0.0000 0.0000
  29   31  0  1 1 0 .01080000 .03310000 .00830000     0                0 0  0.0000 0.00000 0.0000 0.0000 0.0000 0.0000 0.0000
  23   32  0  1 1 0 .03170000 .11530000 .11730000     0                0 0  0.0000 0.00000 0.0000 0.0000 0.0000 0.0000 0.0000
  31   32  0  1 1 0 .02980000 .09850000 .02510000     0                0 0  0.0000 0.00000 0.0000 0.0000 0.0000 0.0000 0.0000
  27   32  0  1 1 0 .02290000 .07550000 .01926000     0                0 0  0.0000 0.00000 0.0000 0.0000 0.0000 0.0000 0.0000
  15   33  0  1 1 0 .03800000 .12440000 .03194000     0                0 0  0.0000 0.00000 0.0000 0.0000 0.0000 0.0000 0.0000
  19   34  0  1 1 0 .07520000 .24700000 .06320000     0                0 0  0.0000 0.00000 0.0000 0.0000 0.0000 0.0000 0.0000
  35   36  0  1 1 0 .00224000 .01020000 .00268000     0                0 0  0.0000 0.00000 0.0000 0.0000 0.0000 0.0000 0.0000
  35   37  0  1 1 0 .01100000 .04970000 .01318000     0                0 0  0.0000 0.00000 0.0000 0.0000 0.0000 0.0000 0.0000
  33   37  0  1 1 0 .04150000 .14200000 .03660000     0                0 0  0.0000 0.00000 0.0000 0.0000 0.0000 0.0000 0.0000
  34   36  0  1 1 0 .00871000 .02680000 .00568000     0                0 0  0.0000 0.00000 0.0000 0.0000 0.0000 0.0000 0.0000
  34   37  0  1 1 0 .00256000 .00940000 .00984000     0                0 0  0.0000 0.00000 0.0000 0.0000 0.0000 0.0000 0.0000
  38   37  0  1 1 1 0.0000000 .03750000 0.0000000     0                0 0  .93500 0.00000 0.0000 0.0000 0.0000 0.0000 0.0000
  37   39  0  1 1 0 .03210000 .10600000 .02700000     0                0 0  0.0000 0.00000 0.0000 0.0000 0.0000 0.0000 0.0000
  37   40  0  1 1 0 .05930000 .16800000 .04200000     0                0 0  0.0000 0.00000 0.0000 0.0000 0.0000 0.0000 0.0000
  30   38  0  1 1 0 .00464000 .05400000 .42200000     0                0 0  0.0000 0.00000 0.0000 0.0000 0.0000 0.0000 0.0000
  39   40  0  1 1 0 .01840000 .06050000 .01552000     0                0 0  0.0000 0.00000 0.0000 0.0000 0.0000 0.0000 0.0000
  40   41  0  1 1 0 .01450000 .04870000 .01222000     0                0 0  0.0000 0.00000 0.0000 0.0000 0.0000 0.0000 0.0000
  40   42  0  1 1 0 .05550000 .18300000 .04660000     0                0 0  0.0000 0.00000 0.0000 0.0000 0.0000 0.0000 0.0000
  41   42  0  1 1 0 .04100000 .13500000 .03440000     0                0 0  0.0000 0.00000 0.0000 0.0000 0.0000 0.0000 0.0000
  43   44  0  1 1 0 .06080000 .24540000 .06068000     0                0 0  0.0000 0.00000 0.0000 0.0000 0.0000 0.0000 0.0000
  34   43  0  1 1 0 .04130000 .16810000 .04226000     0                0 0  0.0000 0.00000 0.0000 0.0000 0.0000 0.0000 0.0000
  44   45  0  1 1 0 .02240000 .09010000 .02240000     0                0 0  0.0000 0.00000 0.0000 0.0000 0.0000 0.0000 0.0000
  45   46  0  1 1 0 .04000000 .13560000 .03320000     0                0 0  0.0000 0.00000 0.0000 0.0000 0.0000 0.0000 0.0000
  46   47  0  1 1 0 .03800000 .12700000 .03160000     0                0 0  0.0000 0.00000 0.0000 0.0000 0.0000 0.0000 0.0000
  46   48  0  1 1 0 .06010000 .18900000 .04720000     0                0 0  0.0000 0.00000 0.0000 0.0000 0.0000 0.0000 0.0000
  47   49  0  1 1 0 .01910000 .06250000 .01604000     0                0 0  0.0000 0.00000 0.0000 0.0000 0.0000 0.0000 0.0000
  42   49  0  1 1 0 .07150000 .32300000 .08600000     0                0 0  0.0000 0.00000 0.0000 0.0000 0.0000 0.0000 0.0000
  42   49  0  1 1 0 .07150000 .32300000 .08600000     0                0 0  0.0000 0.00000 0.0000 0.0000 0.0000 0.0000 0.0000
  45   49  0  1 1 0 .06840000 .18600000 .04440000     0                0 0  0.0000 0.00000 0.0000 0.0000 0.0000 0.0000 0.0000
  48   49  0  1 1 0 .01790000 .05050000 .01258000     0                0 0  0.0000 0.00000 0.0000 0.0000 0.0000 0.0000 0.0000
  49   50  0  1 1 0 .02670000 .07520000 .01874000     0                0 0  0.0000 0.00000 0.0000 0.0000 0.0000 0.0000 0.0000
  49   51  0  1 1 0 .04860000 .13700000 .03420000     0                0 0  0.0000 0.00000 0.0000 0.0000 0.0000 0.0000 0.0000
  51   52  0  1 1 0 .02030000 .05880000 .01396000     0                0 0  0.0000 0.00000 0.0000 0.0000 0.0000 0.0000 0.0000
  52   53  0  1 1 0 .04050000 .16350000 .04058000     0                0 0  0.0000 0.00000 0.0000 0.0000 0.0000 0.0000 0.0000
  53   54  0  1 1 0 .02630000 .12200000 .03100000     0                0 0  0.0000 0.00000 0.0000 0.0000 0.0000 0.0000 0.0000
  49   54  0  1 1 0 .07300000 .28900000 .07380000     0                0 0  0.0000 0.00000 0.0000 0.0000 0.0000 0.0000 0.0000
  49   54  0  1 1 0 .08690000 .29100000 .07300000     0                0 0  0.0000 0.00000 0.0000 0.0000 0.0000 0.0000 0.0000
  54   55  0  1 1 0 .01690000 .07070000 .02020000     0                0 0  0.0000 0.00000 0.0000 0.0000 0.0000 0.0000 0.0000
  54   56  0  1 1 0 .00275000 .00955000 .00732000     0                0 0  0.0000 0.00000 0.0000 0.0000 0.0000 0.0000 0.0000
  55   56  0  1 1 0 .00488000 .01510000 .00374000     0                0 0  0.0000 0.00000 0.0000 0.0000 0.0000 0.0000 0.0000
  56   57  0  1 1 0 .03430000 .09660000 .02420000     0                0 0  0.0000 0.00000 0.0000 0.0000 0.0000 0.0000 0.0000
  50   57  0  1 1 0 .04740000 .13400000 .03320000     0                0 0  0.0000 0.00000 0.0000 0.0000 0.0000 0.0000 0.0000
  56   58  0  1 1 0 .03430000 .09660000 .02420000     0                0 0  0.0000 0.00000 0.0000 0.0000 0.0000 0.0000 0.0000
  51   58  0  1 1 0 .02550000 .07190000 .01788000     0                0 0  0.0000 0.00000 0.0000 0.0000 0.0000 0.0000 0.0000
  54   59  0  1 1 0 .05030000 .22930000 .05980000     0                0 0  0.0000 0.00000 0.0000 0.0000 0.0000 0.0000 0.0000
  56   59  0  1 1 0 .08250000 .25100000 .05690000     0                0 0  0.0000 0.00000 0.0000 0.0000 0.0000 0.0000 0.0000
  56   59  0  1 1 0 .08030000 .23900000 .05360000     0                0 0  0.0000 0.00000 0.0000 0.0000 0.0000 0.0000 0.0000
  55   59  0  1 1 0 .04739000 .21580000 .05646000     0                0 0  0.0000 0.00000 0.0000 0.0000 0.0000 0.0000 0.0000
  59   60  0  1 1 0 .03170000 .14500000 .03760000     0                0 0  0.0000 0.00000 0.0000 0.0000 0.0000 0.0000 0.0000
  59   61  0  1 1 0 .03280000 .15000000 .03880000     0                0 0  0.0000 0.00000 0.0000 0.0000 0.0000 0.0000 0.0000
  60   61  0  1 1 0 .00264000 .01350000 .01456000     0                0 0  0.0000 0.00000 0.0000 0.0000 0.0000 0.0000 0.0000
  60   62  0  1 1 0 .01230000 .05610000 .01468000     0                0 0  0.0000 0.00000 0.0000 0.0000 0.0000 0.0000 0.0000
  61   62  0  1 1 0 .00824000 .03760000 .00980000     0                0 0  0.0000 0.00000 0.0000 0.0000 0.0000 0.0000 0.0000
  63   59  0  1 1 1 0.0000000 .03860000 0.0000000     0                0 0  .96000 0.00000 0.0000 0.0000 0.0000 0.0000 0.0000
  63   64  0  1 1 0 .00172000 .02000000 .21600000     0                0 0  0.0000 0.00000 0.0000 0.0000 0.0000 0.0000 0.0000
  64   61  0  1 1 1 0.0000000 .02680000 0.0000000     0                0 0  .98500 0.00000 0.0000 0.0000 0.0000 0.0000 0.0000
  38   65  0  1 1 0 .00901000 .09860000 1.0460000     0                0 0  0.0000 0.00000 0.0000 0.0000 0.0000 0.0000 0.0000
  64   65  0  1 1 0 .00269000 .03020000 .38000000     0                0 0  0.0000 0.00000 0.0000 0.0000 0.0000 0.0000 0.0000
  49   66  0  1 1 0 .01800000 .09190000 .02480000     0                0 0  0.0000 0.00000 0.0000 0.0000 0.0000 0.0000 0.0000
  49   66  0  1 1 0 .01800000 .09190000 .02480000     0                0 0  0.0000 0.00000 0.0000 0.0000 0.0000 0.0000 0.0000
  62   66  0  1 1 0 .04820000 .21800000 .05780000     0                0 0  0.0000 0.00000 0.0000 0.0000 0.0000 0.0000 0.0000
  62   67  0  1 1 0 .02580000 .11700000 .03100000     0                0 0  0.0000 0.00000 0.0000 0.0000 0.0000 0.0000 0.0000
  65   66  0  1 1 1 0.0000000 .03700000 0.0000000     0                0 0  .93500 0.00000 0.0000 0.0000 0.0000 0.0000 0.0000
  66   67  0  1 1 0 .02240000 .10150000 .02682000     0                0 0  0.0000 0.00000 0.0000 0.0000 0.0000 0.0000 0.0000
  65   68  0  1 1 0 .00138000 .01600000 .63800000     0                0 0  0.0000 0.00000 0.0000 0.0000 0.0000 0.0000 0.0000
  47   69  0  1 1 0 .08440000 .27780000 .07092000     0                0 0  0.0000 0.00000 0.0000 0.0000 0.0000 0.0000 0.0000
  49   69  0  1 1 0 .09850000 .32400000 .08280000     0                0 0  0.0000 0.00000 0.0000 0.0000 0.0000 0.0000 0.0000
  68   69  0  1 1 1 0.0000000 .03700000 0.0000000     0                0 0  .93500 0.00000 0.0000 0.0000 0.0000 0.0000 0.0000
  69   70  0  1 1 0 .03000000 .12700000 .12200000     0                0 0  0.0000 0.00000 0.0000 0.0000 0.0000 0.0000 0.0000
  24   70  0  1 1 0 .00221000 .41150000 .10198000     0                0 0  0.0000 0.00000 0.0000 0.0000 0.0000 0.0000 0.0000
  70   71  0  1 1 0 .00882000 .03550000 .00878000     0                0 0  0.0000 0.00000 0.0000 0.0000 0.0000 0.0000 0.0000
  24   72  0  1 1 0 .04880000 .19600000 .04880000     0                0 0  0.0000 0.00000 0.0000 0.0000 0.0000 0.0000 0.0000
  71   72  0  1 1 0 .04460000 .18000000 .04444000     0                0 0  0.0000 0.00000 0.0000 0.0000 0.0000 0.0000 0.0000
  71   73  0  1 1 0 .00866000 .04540000 .01178000     0                0 0  0.0000 0.00000 0.0000 0.0000 0.0000 0.0000 0.0000
  70   74  0  1 1 0 .04010000 .13230000 .03368000     0                0 0  0.0000 0.00000 0.0000 0.0000 0.0000 0.0000 0.0000
  70   75  0  1 1 0 .04280000 .14100000 .03600000     0                0 0  0.0000 0.00000 0.0000 0.0000 0.0000 0.0000 0.0000
  69   75  0  1 1 0 .04050000 .12200000 .12400000     0                0 0  0.0000 0.00000 0.0000 0.0000 0.0000 0.0000 0.0000