TAPE
 09/05/17 Generated with PFLOW 100.00 2017 S IEEE 14 Bus Test Case       
BUS DATA FOLLOWS                     14 ITEMS
   1 Bus 1     HV  0  1  3 1.0598 0.0000 0.000000 0.000000 232.3957 -16.900 0.00000 0.0000 0.00000 0.00000 0.00000 0.00000    0
   2 Bus 2     HV  0  1  2 1.0450 -4.986 21.70000 12.70000 40.00000 43.8854 0.00000 1.0450 50.0000 -40.000 0.00000 0.00000    0
   3 Bus 3     HV  0  1  2 1.0100 -12.73 94.20000 19.00000 0.000000 25.0858 0.00000 1.0100 40.0000 0.00000 0.00000 0.00000    0
   4 Bus 4     HV  0  1  0 1.0177 -10.32 47.80000 -3.90000 0.000000 0.00000 0.00000 1.0177 0.00000 0.00000 0.00000 0.00000    0
   5 Bus 5     HV  0  1  0 1.0195 -8.777 7.600000 1.600000 0.000000 0.00000 0.00000 1.0195 0.00000 0.00000 0.00000 0.00000    0
   6 Bus 6     LV  0  1  2 1.0700 -14.22 11.20000 7.500000 0.000000 12.7475 0.00000 1.0700 24.0000 -6.0000 0.00000 0.00000    0
   7 Bus 7     ZV  0  1  0 1.0615 -13.36 0.000000 0.000000 0.000000 0.00000 0.00000 1.0615 0.00000 0.00000 0.00000 0.00000    0
   8 Bus 8     TV  0  1  2 1.0900 -13.36 0.000000 0.000000 0.000000 17.6283 0.00000 1.0900 24.0000 -6.0000 0.00000 0.00000    0
   9 Bus 9     LV  0  1  0 1.0559 -14.94 29.50000 16.60000 0.000000 0.00000 0.00000 1.0559 0.00000 0.00000 0.00000 .190000    0
  10 Bus 10    LV  0  1  0 1.0510 -15.10 9.000000 5.800000 0.000000 0.00000 0.00000 1.0510 0.00000 0.00000 0.00000 0.00000    0
  11 Bus 11    LV  0  1  0 1.0569 -14.79 3.500000 1.800000 0.000000 0.00000 0.00000 1.0569 0.00000 0.00000 0.00000 0.00000    0
  12 Bus 12    LV  0  1  0 1.0552 -15.08 6.100000 1.600000 0.000000 0.00000 0.00000 1.0552 0.00000 0.00000 0.00000 0.00000    0
  13 Bus 13    LV  0  1  0 1.0504 -15.16 13.50000 5.800000 0.000000 0.00000 0.00000 1.0504 0.00000 0.00000 0.00000 0.00000    0
  14 Bus 14    LV  0  1  0 1.0355 -16.04 14.90000 5.000000 0.000000 0.00000 0.00000 1.0355 0.00000 0.00000 0.00000 0.00000    0
-999
BRANCH DATA FOLLOWS                  20 ITEMS
   1    2  0  1 1 0 .01938000 .05917000 .05280000     0                0 0  0.0000 0.00000 0.0000 0.0000 0.0000 0.0000 0.0000
   1    5  0  1 1 0 .05403000 .22304000 .04920000     0                0 0  0.0000 0.00000 0.0000 0.0000 0.0000 0.0000 0.0000
   2    3  0  1 1 0 .04699000 .19797000 .04380000     0                0 0  0.0000 0.00000 0.0000 0.0000 0.0000 0.0000 0.0000
   2    4  0  1 1 0 .05811000 .17632000 .03400000     0                0 0  0.0000 0.00000 0.0000 0.0000 0.0000 0.0000 0.0000
   2    5  0  1 1 0 .05695000 .17388000 .03460000     0                0 0  0.0000 0.00000 0.0000 0.0000 0.0000 0.0000 0.0000
   3    4  0  1 1 0 .06701000 .17103000 .01280000     0                0 0  0.0000 0.00000 0.0000 0.0000 0.0000 0.0000 0.0000
   4    5  0  1 1 0 .01335000 .04211000 0.0000000     0                0 0  0.0000 0.00000 0.0000 0.0000 0.0000 0.0000 0.0000
   4    7  0  1 1 1 0.0000000 .20912000 0.0000000     0                0 0  .97800 0.00000 0.0000 0.0000 0.0000 0.0000 0.0000
   4    9  0  1 1 1 0.0000000 .55618000 0.0000000     0                0 0  .96900 0.00000 0.0000 0.0000 0.0000 0.0000 0.0000
   5    6  0  1 1 1 0.0000000 .25202000 0.0000000     0                0 0  .93200 0.00000 0.0000 0.0000 0.0000 0.0000 0.0000
   6   11  0  1 1 0 .09498000 .19890000 0.0000000     0                0 0  0.0000 0.00000 0.0000 0.0000 0.0000 0.0000 0.0000
   6   12  0  1 1 0 .12291000 .25581000 0.0000000     0                0 0  0.0000 0.00000 0.0000 0.0000 0.0000 0.0000 0.0000
   6   13  0  1 1 0 .06615000 .13027000 0.0000000     0                0 0  0.0000 0.00000 0.0000 0.0000 0.0000 0.0000 0.0000
   7    8  0  1 1 0 0.0000000 .17615000 0.0000000     0                0 0  0.0000 0.00000 0.0000 0.0000 0.0000 0.0000 0.0000
   7    9  0  1 1 0 0.0000000 .11001000 0.0000000     0                0 0  0.0000 0.00000 0.0000 0.0000 0.0000 0.0000 0.0000
   9   10  0  1 1 0 .03181000 .08450000 0.0000000     0                0 0  0.0000 0.00000 0.0000 0.0000 0.0000 0.0000 0.0000
   9   14  0  1 1 0 .12711000 .27038000 0.0000000     0                0 0  0.0000 0.00000 0.0000 0.0000 0.0000 0.0000 0.0000
  10   11  0  1 1 0 .08205000 .19207000 0.0000000     0                0 0  0.0000 0.00000 0.0000 0.0000 0.0000 0.0000 0.0000
  12   13  0  1 1 0 .22092000 .19988000 0.0000000     0                0 0  0.0000 0.00000 0.0000 0.0000 0.0000 0.0000 0.0000
  13   14  0  1 1 0 .17093000 .34802000 0.0000000     0                0 0  0.0000 0.00000 0.0000 0.0000 0.0000 0.0000 0.0000
-999
LOSS ZONES FOLLOW                     0 ITEMS
-99
INTERCHANGE DATA FOLLOWS              0 ITEMS
-9
TIE LINES FOLLOW                      0 ITEMS
-999
END OF DATA
