TAPE
 09/05/17 Generated with PFLOW 100.00 2017 S IEEE 30 Bus Test Case      
BUS DATA FOLLOWS                     30 ITEMS
   1 Glen Lyn 132  0  1  3 1.0637 0.0000 0.000000 0.000000 260.8120 -16.100 132.000 0.0000 0.00000 0.00000 0.00000 0.00000    0
   2 Claytor  132  0  1  2 1.0450 -5.278 21.70000 12.70000 40.00000 41.9197 132.000 1.0450 50.0000 -40.000 0.00000 0.00000    0
   3 Kumis    132  0  1  0 1.0286 -7.535 2.400000 1.200000 0.000000 0.00000 132.000 1.0286 0.00000 0.00000 0.00000 0.00000    0
   4 Hancock  132  0  1  0 1.0206 -9.283 7.600000 1.600000 0.000000 0.00000 132.000 1.0206 0.00000 0.00000 0.00000 0.00000    0
   5 Fieldale 132  0  1  2 1.0100 -14.02 94.20000 19.00000 0.000000 33.6392 132.000 1.0100 40.0000 -40.000 0.00000 0.00000    0
   6 Roanoke  132  0  1  0 1.0145 -11.00 0.000000 0.000000 0.000000 0.00000 132.000 1.0145 0.00000 0.00000 0.00000 0.00000    0
   7 Blaine   132  0  1  0 1.0049 -12.77 22.80000 10.90000 0.000000 0.00000 132.000 1.0049 0.00000 0.00000 0.00000 0.00000    0
   8 Reusens  132  0  1  2 1.0100 -11.68 30.00000 30.00000 0.000000 25.1148 132.000 1.0100 40.0000 -10.000 0.00000 0.00000    0
   9 Roanoke  1.0  0  1  0 1.0368 -14.26 0.000000 0.000000 0.000000 0.00000 1.00000 1.0368 0.00000 0.00000 0.00000 0.00000    0
  10 Roanoke   33  0  1  0 1.0261 -15.96 5.800000 2.000000 0.000000 0.00000 33.0000 1.0261 0.00000 0.00000 0.00000 .190000    0
  11 Roanoke   11  0  1  2 1.0820 -14.26 0.000000 0.000000 0.000000 23.4930 11.0000 1.0820 24.0000 -6.0000 0.00000 0.00000    0
  12 Hancock   33  0  1  0 1.0345 -15.26 11.20000 7.500000 0.000000 0.00000 33.0000 1.0345 0.00000 0.00000 0.00000 0.00000    0
  13 Hancock   11  0  1  2 1.0710 -15.26 0.000000 0.000000 0.000000 27.9209 11.0000 1.0710 24.0000 -6.0000 0.00000 0.00000    0
  14 Bus 14    33  0  1  0 1.0196 -16.18 6.200000 1.600000 0.000000 0.00000 33.0000 1.0196 0.00000 0.00000 0.00000 0.00000    0
  15 Bus 15    33  0  1  0 1.0153 -16.26 8.200000 2.500000 0.000000 0.00000 33.0000 1.0153 0.00000 0.00000 0.00000 0.00000    0
  16 Bus 16    33  0  1  0 1.0232 -15.84 3.500000 1.800000 0.000000 0.00000 33.0000 1.0232 0.00000 0.00000 0.00000 0.00000    0
  17 Bus 17    33  0  1  0 1.0201 -16.15 9.000000 5.800000 0.000000 0.00000 33.0000 1.0201 0.00000 0.00000 0.00000 0.00000    0
  18 Bus 18    33  0  1  0 1.0067 -16.88 3.200000 .9000000 0.000000 0.00000 33.0000 1.0067 0.00000 0.00000 0.00000 0.00000    0
  19 Bus 19    33  0  1  0 1.0048 -17.05 9.500000 3.400000 0.000000 0.00000 33.0000 1.0048 0.00000 0.00000 0.00000 0.00000    0
  20 Bus 20    33  0  1  0 1.0093 -16.84 2.200000 .7000000 0.000000 0.00000 33.0000 1.0093 0.00000 0.00000 0.00000 0.00000    0
  21 Bus 21    33  0  1  0 1.0129 -16.42 17.50000 11.20000 0.000000 0.00000 33.0000 1.0129 0.00000 0.00000 0.00000 0.00000    0
  22 Bus 22    33  0  1  0 1.0133 -16.41 0.000000 0.000000 0.000000 0.00000 33.0000 1.0133 0.00000 0.00000 0.00000 0.00000    0
  23 Bus 23    33  0  1  0 1.0047 -16.63 3.200000 1.600000 0.000000 0.00000 33.0000 1.0047 0.00000 0.00000 0.00000 0.00000    0
  24 Bus 24    33  0  1  0 .99918 -16.77 8.700000 6.700000 0.000000 0.00000 33.0000 .99918 0.00000 0.00000 0.00000 .043000    0
  25 Bus 25    33  0  1  0 .99189 -16.25 0.000000 0.000000 0.000000 0.00000 33.0000 .99189 0.00000 0.00000 0.00000 0.00000    0
  26 Bus 26    33  0  1  0 .97374 -16.70 3.500000 2.300000 0.000000 0.00000 33.0000 .97374 0.00000 0.00000 0.00000 0.00000    0
  27 Cloverdle 33  0  1  0 .99613 -15.66 0.000000 0.000000 0.000000 0.00000 33.0000 .99613 0.00000 0.00000 0.00000 0.00000    0
  28 Cloverdle132  0  1  0 1.0104 -11.61 0.000000 0.000000 0.000000 0.00000 132.000 1.0104 0.00000 0.00000 0.00000 0.00000    0
  29 Bus 29    33  0  1  0 .97569 -16.96 2.400000 .9000000 0.000000 0.00000 33.0000 .97569 0.00000 0.00000 0.00000 0.00000    0
  30 Bus 30    33  0  1  0 .96387 -17.90 10.60000 1.900000 0.000000 0.00000 33.0000 .96387 0.00000 0.00000 0.00000 0.00000    0
-999
BRANCH DATA FOLLOWS                  41 ITEMS
   1    2  0  1 1 0 .01920000 .05750000 .05280000     0                0 0  0.0000 0.00000 0.0000 0.0000 0.0000 0.0000 0.0000
   1    3  0  1 1 0 .04520000 .16520000 .04080000     0                0 0  0.0000 0.00000 0.0000 0.0000 0.0000 0.0000 0.0000
   2    4  0  1 1 0 .05700000 .17370000 .03680000     0                0 0  0.0000 0.00000 0.0000 0.0000 0.0000 0.0000 0.0000
   3    4  0  1 1 0 .01320000 .03790000 .00840000     0                0 0  0.0000 0.00000 0.0000 0.0000 0.0000 0.0000 0.0000
   2    5  0  1 1 0 .04720000 .19830000 .04180000     0                0 0  0.0000 0.00000 0.0000 0.0000 0.0000 0.0000 0.0000
   2    6  0  1 1 0 .05810000 .17630000 .03740000     0                0 0  0.0000 0.00000 0.0000 0.0000 0.0000 0.0000 0.0000
   4    6  0  1 1 0 .01190000 .04140000 .00900000     0                0 0  0.0000 0.00000 0.0000 0.0000 0.0000 0.0000 0.0000
   5    7  0  1 1 0 .04600000 .11600000 .02040000     0                0 0  0.0000 0.00000 0.0000 0.0000 0.0000 0.0000 0.0000
   6    7  0  1 1 0 .02670000 .08200000 .01700000     0                0 0  0.0000 0.00000 0.0000 0.0000 0.0000 0.0000 0.0000
   6    8  0  1 1 0 .01200000 .04200000 .00900000     0                0 0  0.0000 0.00000 0.0000 0.0000 0.0000 0.0000 0.0000
   6    9  0  1 1 0 0.0000000 .20800000 0.0000000     0                0 0  0.0000 0.00000 0.0000 0.0000 0.0000 0.0000 0.0000
   6   10  0  1 1 0 0.0000000 .55600000 0.0000000     0                0 0  0.0000 0.00000 0.0000 0.0000 0.0000 0.0000 0.0000
   9   11  0  1 1 0 0.0000000 .20800000 0.0000000     0                0 0  0.0000 0.00000 0.0000 0.0000 0.0000 0.0000 0.0000
   9   10  0  1 1 0 0.0000000 .11000000 0.0000000     0                0 0  0.0000 0.00000 0.0000 0.0000 0.0000 0.0000 0.0000
   4   12  0  1 1 0 0.0000000 .25600000 0.0000000     0                0 0  0.0000 0.00000 0.0000 0.0000 0.0000 0.0000 0.0000
  12   13  0  1 1 0 0.0000000 .14000000 0.0000000     0                0 0  0.0000 0.00000 0.0000 0.0000 0.0000 0.0000 0.0000
  12   14  0  1 1 0 .12310000 .25590000 0.0000000     0                0 0  0.0000 0.00000 0.0000 0.0000 0.0000 0.0000 0.0000
  12   15  0  1 1 0 .06620000 .13040000 0.0000000     0                0 0  0.0000 0.00000 0.0000 0.0000 0.0000 0.0000 0.0000
  12   16  0  1 1 0 .09450000 .19870000 0.0000000     0                0 0  0.0000 0.00000 0.0000 0.0000 0.0000 0.0000 0.0000
  14   15  0  1 1 0 .22100000 .19970000 0.0000000     0                0 0  0.0000 0.00000 0.0000 0.0000 0.0000 0.0000 0.0000
  16   17  0  1 1 0 .05240000 .19230000 0.0000000     0                0 0  0.0000 0.00000 0.0000 0.0000 0.0000 0.0000 0.0000
  15   18  0  1 1 0 .10730000 .21850000 0.0000000     0                0 0  0.0000 0.00000 0.0000 0.0000 0.0000 0.0000 0.0000
  18   19  0  1 1 0 .06390000 .12920000 0.0000000     0                0 0  0.0000 0.00000 0.0000 0.0000 0.0000 0.0000 0.0000
  19   20  0  1 1 0 .03400000 .06800000 0.0000000     0                0 0  0.0000 0.00000 0.0000 0.0000 0.0000 0.0000 0.0000
  10   20  0  1 1 0 .09360000 .20900000 0.0000000     0                0 0  0.0000 0.00000 0.0000 0.0000 0.0000 0.0000 0.0000
  10   17  0  1 1 0 .03240000 .08450000 0.0000000     0                0 0  0.0000 0.00000 0.0000 0.0000 0.0000 0.0000 0.0000
  10   21  0  1 1 0 .03480000 .07490000 0.0000000     0                0 0  0.0000 0.00000 0.0000 0.0000 0.0000 0.0000 0.0000
  10   22  0  1 1 0 .07270000 .14990000 0.0000000     0                0 0  0.0000 0.00000 0.0000 0.0000 0.0000 0.0000 0.0000
  21   22  0  1 1 0 .01160000 .02360000 0.0000000     0                0 0  0.0000 0.00000 0.0000 0.0000 0.0000 0.0000 0.0000
  15   23  0  1 1 0 .10000000 .20200000 0.0000000     0                0 0  0.0000 0.00000 0.0000 0.0000 0.0000 0.0000 0.0000
  22   24  0  1 1 0 .11500000 .17900000 0.0000000     0                0 0  0.0000 0.00000 0.0000 0.0000 0.0000 0.0000 0.0000
  23   24  0  1 1 0 .13200000 .27000000 0.0000000     0                0 0  0.0000 0.00000 0.0000 0.0000 0.0000 0.0000 0.0000
  24   25  0  1 1 0 .18850000 .32920000 0.0000000     0                0 0  0.0000 0.00000 0.0000 0.0000 0.0000 0.0000 0.0000
  25   26  0  1 1 0 .25440000 .38000000 0.0000000     0                0 0  0.0000 0.00000 0.0000 0.0000 0.0000 0.0000 0.0000
  25   27  0  1 1 0 .10930000 .20870000 0.0000000     0                0 0  0.0000 0.00000 0.0000 0.0000 0.0000 0.0000 0.0000
  28   27  0  1 1 0 0.0000000 .39600000 0.0000000     0                0 0  0.0000 0.00000 0.0000 0.0000 0.0000 0.0000 0.0000
  27   29  0  1 1 0 .21980000 .41530000 0.0000000     0                0 0  0.0000 0.00000 0.0000 0.0000 0.0000 0.0000 0.0000
  27   30  0  1 1 0 .32020000 .60270000 0.0000000     0                0 0  0.0000 0.00000 0.0000 0.0000 0.0000 0.0000 0.0000
  29   30  0  1 1 0 .23990000 .45330000 0.0000000     0                0 0  0.0000 0.00000 0.0000 0.0000 0.0000 0.0000 0.0000
   8   28  0  1 1 0 .06360000 .20000000 .04280000     0                0 0  0.0000 0.00000 0.0000 0.0000 0.0000 0.0000 0.0000
   6   28  0  1 1 0 .01690000 .05990000 .01300000     0                0 0  0.0000 0.00000 0.0000 0.0000 0.0000 0.0000 0.0000
-999
LOSS ZONES FOLLOW                     0 ITEMS
-99
INTERCHANGE DATA FOLLOWS              0 ITEMS
-9
TIE LINES FOLLOW                      0 ITEMS
-999
END OF DATA
