 05/17/17 WHU LAB               100.0 1962 W IEEE 14 Bus Test Case FAULT 4 
BUS DATA FOLLOWS                             14 ITEMS
   1 Bus 1     HV  1  1  0  0.990 -18.11      0.0       0.0     0.0     0.0     0.0  1.060     0.0     0.0     0.0     0.0    0
   2 Bus 2     HV  1  1  0  0.988 -17.36     21.7      12.7     0.0     0.0     0.0  1.045    50.0   -40.0     0.0     0.0    0
   3 Bus 3     HV  1  1  3  1.010 -12.72     94.2      19.0   227.4    35.3     0.0  1.010     0.0     0.0     0.0     0.0    0
   4 Bus 4     HV  1  1  0  0.932 -21.65     47.8      -3.9     0.0     0.0     0.0  0.000     0.0     0.0     0.0     0.0    0
   5 Bus 5     HV  1  1  0  0.989 -20.70      7.6       1.6     0.0     0.0     0.0  0.000     0.0     0.0     0.0     0.0    0
   6 Bus 6     LV  1  1  2  1.070 -22.11     11.2       7.5    40.0    31.6     0.0  1.070    24.0    -6.0     0.0     0.0    0
   7 Bus 7     ZV  1  1  0  0.948 -24.87      0.0       0.0     0.0     0.0     0.0  0.000     0.0     0.0     0.0     0.0    0
   8 Bus 8     TV  1  1  0  0.948 -24.87      0.0       0.0     0.0     0.0     0.0  1.090    24.0    -6.0     0.0     0.0    0
   9 Bus 9     LV  1  1  0  0.947 -26.58     29.5      16.6     0.0     0.0     0.0  0.000     0.0     0.0     0.0     0.2    0
  10 Bus 10    LV  1  1  0  0.935 -27.11      9.0       5.8     0.0     0.0     0.0  0.000     0.0     0.0     0.0     0.0    0
  11 Bus 11    LV  1  1  0  0.929 -27.45      3.5       1.8     0.0     0.0     0.0  0.000     0.0     0.0     0.0     0.0    0
  12 Bus 12    LV  1  1  0  1.047 -23.28      6.1       1.6     0.0     0.0     0.0  0.000     0.0     0.0     0.0     0.0    0
  13 Bus 13    LV  1  1  0  1.033 -23.51     13.5       5.8     0.0     0.0     0.0  0.000     0.0     0.0     0.0     0.0    0
  14 Bus 14    LV  1  1  0  0.964 -26.31     14.9       5.0     0.0     0.0     0.0  0.000     0.0     0.0     0.0     0.0    0
-999
BRANCH DATA FOLLOWS                             16 ITEMS
   1    2  1  1 1 0   0.01938   0.05917   0.05280     0     0     0   0 0       0       0      0      0      0       0      0
   1    5  1  1 1 0   0.05403   0.22304   0.04920     0     0     0   0 0       0       0      0      0      0       0      0
   2    3  1  1 1 0   0.04699   0.19797   0.04380     0     0     0   0 0       0       0      0      0      0       0      0
   3    4  1  1 1 0   0.06701   0.17103   0.01280     0     0     0   0 0       0       0      0      0      0       0      0
   4    7  1  1 1 1   0.00000   0.20912   0.00000     0     0     0   0 0   0.978       0      0      0      0       0      0
   4    9  1  1 1 1   0.00000   0.55618   0.00000     0     0     0   0 0   0.969       0      0      0      0       0      0
   5    6  1  1 1 1   0.00000   0.25202   0.00000     0     0     0   0 0   0.932       0      0      0      0       0      0
   6   12  1  1 1 0   0.12291   0.25581   0.00000     0     0     0   0 0       0       0      0      0      0       0      0
   6   13  1  1 1 0   0.06615   0.13027   0.00000     0     0     0   0 0       0       0      0      0      0       0      0
   7    8  1  1 1 0   0.00000   0.17615   0.00000     0     0     0   0 0       0       0      0      0      0       0      0
   7    9  1  1 1 0   0.00000   0.11001   0.00000     0     0     0   0 0       0       0      0      0      0       0      0
   9   10  1  1 1 0   0.03181   0.08450   0.00000     0     0     0   0 0       0       0      0      0      0       0      0
   9   14  1  1 1 0   0.12711   0.27038   0.00000     0     0     0   0 0       0       0      0      0      0       0      0
  10   11  1  1 1 0   0.08205   0.19207   0.00000     0     0     0   0 0       0       0      0      0      0       0      0
  12   13  1  1 1 0   0.22092   0.19988   0.00000     0     0     0   0 0       0       0      0      0      0       0      0
  13   14  1  1 1 0   0.17093   0.34802   0.00000     0     0     0   0 0       0       0      0      0      0       0      0
-999
END OF DATA
