 08/19/93 EXAMPLE 6.6          100.0  2016 W MODERN PSA
BUS DATA FOLLOWS                            14 ITEMS
   1 Bus 1     HV  1  1  3 1.040    0.0     200.     100.      0.0     0.0     0.0  1.040     0.0     0.0   0.0    0.0        0
   2 Bus 2     HV  1  1  0 1.000    0.0     0.       0.        50.    100.     0.0  0.        0.0     0.0   0.0    0.0        0
   3 Bus 3     HV  1  1  2 1.040    0.0     150.     60.0      0.0     0.0     0.0  1.040    60.0     0.0   0.0    0.0        0
-999 
BRANCH DATA FOLLOWS                         20 ITEMS
   1    2  1  1 1 0  0.02000   0.08000     0.02       0     0     0    0 0  0.0       0.0 0.0    0.0     0.0    0.0   0.0
   1    3  1  1 1 0  0.02000   0.08000     0.02       0     0     0    0 0  0.0       0.0 0.0    0.0     0.0    0.0   0.0
   2    3  1  1 1 0  0.02000   0.08000     0.0200     0     0     0    0 0  0.0       0.0 0.0    0.0     0.0    0.0   0.0
-999
END OF DATA
