 11/24/16 UW ARCHIVE            100.0 1962 W          IEEE 14 Bus Test Case FAULT 4
BUS DATA FOLLOWS                             14 ITEMS
   1 Bus 1     HV  1  1  0  1.040  -6.05      0.0       0.0     0.0     0.0     0.0  1.060     0.0     0.0     0.0     0.0    0
   2 Bus 2     HV  1  1  0  1.027  -5.12     21.7      12.7     0.0     0.0     0.0  1.045    50.0   -40.0     0.0     0.0    0
   3 Bus 3     HV  1  1  3  1.010   0.00     94.2      19.0   228.6    12.9     0.0  1.010    40.0     0.0     0.0     0.0    0
   4 Bus 4     HV  1  1  0  0.938  -8.97     47.8      -3.9     0.0     0.0     0.0  0.000     0.0     0.0     0.0     0.0    0
   5 Bus 5     HV  1  1  0  1.082  -8.96      7.6       1.6     0.0     0.0     0.0  0.000     0.0     0.0     0.0     0.0    0
   6 Bus 6     LV  1  1  2  1.070 -10.54     11.2       7.5    40.0    59.1     0.0  1.070    24.0    -6.0     0.0     0.0    0
   7 Bus 7     ZV  1  1  0  0.911 -12.46      0.0       0.0     0.0     0.0     0.0  0.000     0.0     0.0     0.0     0.0    0
   8 Bus 8     TV  1  1  0  0.911 -12.46      0.0       0.0     0.0     0.0     0.0  1.090    24.0    -6.0     0.0     0.0    0
   9 Bus 9     LV  1  1  0  0.910 -14.31     29.5      16.6     0.0     0.0     0.0  0.000     0.0     0.0     0.0     0.2    0
  10 Bus 10    LV  1  1  0  0.898 -14.88      9.0       5.8     0.0     0.0     0.0  0.000     0.0     0.0     0.0     0.0    0
  11 Bus 11    LV  1  1  0  0.891 -15.26      3.5       1.8    -0.0    -0.0     0.0  0.000     0.0     0.0     0.0     0.0    0
  12 Bus 12    LV  1  1  0  1.045 -11.69      6.1       1.6     0.0     0.0     0.0  0.000     0.0     0.0     0.0     0.0    0
  13 Bus 13    LV  1  1  0  1.028 -11.84     13.5       5.8     0.0     0.0     0.0  0.000     0.0     0.0     0.0     0.0    0
  14 Bus 14    LV  1  1  0  0.941 -14.34     14.9       5.0     0.0     0.0     0.0  0.000     0.0     0.0     0.0     0.0    0
-999
BRANCH DATA FOLLOWS                             16 ITEMS
   1    2  1  1 1 0   0.01938   0.05917   0.05280     0     0     0   0 0  0.0000  0.0000 0.0000 0.00000.00000  0.0000 0.0000
   1    5  1  1 1 0   0.05403   0.22304   0.04920     0     0     0   0 0  0.0000  0.0000 0.0000 0.00000.00000  0.0000 0.0000
   2    3  1  1 1 0   0.04699   0.19797   0.04380     0     0     0   0 0  0.0000  0.0000 0.0000 0.00000.00000  0.0000 0.0000
   3    4  1  1 1 0   0.06701   0.17103   0.01280     0     0     0   0 0  0.0000  0.0000 0.0000 0.00000.00000  0.0000 0.0000
   4    7  1  1 1 1   0.00000   0.20912   0.00000     0     0     0   0 0  0.9780  0.0000 0.0000 0.00000.00000  0.0000 0.0000
   4    9  1  1 1 1   0.00000   0.55618   0.00000     0     0     0   0 0  0.9690  0.0000 0.0000 0.00000.00000  0.0000 0.0000
   5    6  1  1 1 1   0.00000   0.25202   0.00000     0     0     0   0 0  0.9320  0.0000 0.0000 0.00000.00000  0.0000 0.0000
   6   12  1  1 1 0   0.12291   0.25581   0.00000     0     0     0   0 0  0.0000  0.0000 0.0000 0.00000.00000  0.0000 0.0000
   6   13  1  1 1 0   0.06615   0.13027   0.00000     0     0     0   0 0  0.0000  0.0000 0.0000 0.00000.00000  0.0000 0.0000
   7    8  1  1 1 0   0.00000   0.17615   0.00000     0     0     0   0 0  0.0000  0.0000 0.0000 0.00000.00000  0.0000 0.0000
   7    9  1  1 1 0   0.00000   0.11001   0.00000     0     0     0   0 0  0.0000  0.0000 0.0000 0.00000.00000  0.0000 0.0000
   9   10  1  1 1 0   0.03181   0.08450   0.00000     0     0     0   0 0  0.0000  0.0000 0.0000 0.00000.00000  0.0000 0.0000
   9   14  1  1 1 0   0.12711   0.27038   0.00000     0     0     0   0 0  0.0000  0.0000 0.0000 0.00000.00000  0.0000 0.0000
  10   11  1  1 1 0   0.08205   0.19207   0.00000     0     0     0   0 0  0.0000  0.0000 0.0000 0.00000.00000  0.0000 0.0000
  12   13  1  1 1 0   0.22092   0.19988   0.00000     0     0     0   0 0  0.0000  0.0000 0.0000 0.00000.00000  0.0000 0.0000
  13   14  1  1 1 0   0.17093   0.34802   0.00000     0     0     0   0 0  0.0000  0.0000 0.0000 0.00000.00000  0.0000 0.0000
-999
END OF DATA
