 05/11/17 WHU LAB               100.0 2017 S IEEE 30 Bus Test Case         
BUS DATA FOLLOWS                             30 ITEMS
   1 Glen Lyn 132  1  1  3  1.060   0.00      0.0       0.0   262.4   -25.6   132.0  1.060     0.0     0.0     0.0     0.0    0
   2 Claytor  132  1  1  2  1.045  -5.39     21.7      12.7    40.0    47.6   132.0  1.045    50.0   -40.0     0.0     0.0    0
   3 Kumis    132  1  1  0  1.029  -7.65      2.4       1.2     0.0     0.0   132.0  0.000     0.0     0.0     0.0     0.0    0
   4 Hancock  132  1  1  0  1.022  -9.40      7.6       1.6     0.0     0.0   132.0  0.000     0.0     0.0     0.0     0.0    0
   5 Fieldale 132  1  1  2  1.010 -14.14     94.2      19.0     0.0    33.0   132.0  1.010    40.0   -40.0     0.0     0.0    0
   6 Roanoke  132  1  1  0  1.016 -11.13      0.0       0.0     0.0     0.0   132.0  0.000     0.0     0.0     0.0     0.0    0
   7 Blaine   132  1  1  0  1.006 -12.89     22.8      10.9     0.0     0.0   132.0  0.000     0.0     0.0     0.0     0.0    0
   8 Reusens  132  1  1  2  1.010 -11.78     30.0      30.0     0.0    21.0   132.0  1.010    40.0   -10.0     0.0     0.0    0
   9 Roanoke  1.0  1  1  0  1.043 -14.27      0.0       0.0     0.0     0.0     1.0  0.000     0.0     0.0     0.0     0.0    0
  10 Roanoke   33  1  1  0  1.036 -15.88      5.8       2.0     0.0     0.0    33.0  0.000     0.0     0.0     0.0     0.2    0
  11 Roanoke   11  1  1  2  1.082 -14.27      0.0       0.0     0.0    20.5    11.0  1.082    24.0    -6.0     0.0     0.0    0
  12 Hancock   33  1  1  0  1.039 -15.13     11.2       7.5     0.0     0.0    33.0  0.000     0.0     0.0     0.0     0.0    0
  13 Hancock   11  1  1  2  1.071 -15.13      0.0       0.0     0.0    24.2    11.0  1.071    24.0    -6.0     0.0     0.0    0
  14 Bus 14    33  1  1  0  1.026 -16.02      6.2       1.6     0.0     0.0    33.0  0.000     0.0     0.0     0.0     0.0    0
  15 Bus 15    33  1  1  0  1.023 -16.14      8.2       2.5     0.0     0.0    33.0  0.000     0.0     0.0     0.0     0.0    0
  16 Bus 16    33  1  1  0  1.031 -15.74      3.5       1.8     0.0     0.0    33.0  0.000     0.0     0.0     0.0     0.0    0
  17 Bus 17    33  1  1  0  1.030 -16.05      9.0       5.8     0.0     0.0    33.0  0.000     0.0     0.0     0.0     0.0    0
  18 Bus 18    33  1  1  0  1.018 -16.77      3.2       0.9     0.0     0.0    33.0  0.000     0.0     0.0     0.0     0.0    0
  19 Bus 19    33  1  1  0  1.017 -16.94      9.5       3.4     0.0     0.0    33.0  0.000     0.0     0.0     0.0     0.0    0
  20 Bus 20    33  1  1  0  1.021 -16.73      2.2       0.7     0.0     0.0    33.0  0.000     0.0     0.0     0.0     0.0    0
  21 Bus 21    33  1  1  0  1.025 -16.34     17.5      11.2     0.0     0.0    33.0  0.000     0.0     0.0     0.0     0.0    0
  22 Bus 22    33  1  1  0  1.025 -16.32      0.0       0.0     0.0     0.0    33.0  0.000     0.0     0.0     0.0     0.0    0
  23 Bus 23    33  1  1  0  1.014 -16.52      3.2       1.6     0.0     0.0    33.0  0.000     0.0     0.0     0.0     0.0    0
  24 Bus 24    33  1  1  0  1.010 -16.67      8.7       6.7     0.0     0.0    33.0  0.000     0.0     0.0     0.0     0.0    0
  25 Bus 25    33  1  1  0  1.001 -16.18      0.0       0.0     0.0     0.0    33.0  0.000     0.0     0.0     0.0     0.0    0
  26 Bus 26    33  1  1  0  0.984 -16.61      3.5       2.3     0.0     0.0    33.0  0.000     0.0     0.0     0.0     0.0    0
  27 Cloverdle 33  1  1  0  1.003 -15.61      0.0       0.0     0.0     0.0    33.0  0.000     0.0     0.0     0.0     0.0    0
  28 Cloverdle132  1  1  0  1.012 -11.72      0.0       0.0     0.0     0.0   132.0  0.000     0.0     0.0     0.0     0.0    0
  29 Bus 29    33  1  1  0  0.984 -16.89      2.4       0.9     0.0     0.0    33.0  0.000     0.0     0.0     0.0     0.0    0
  30 Bus 30    33  1  1  0  0.972 -17.80     10.6       1.9     0.0     0.0    33.0  0.000     0.0     0.0     0.0     0.0    0
-999
BRANCH DATA FOLLOWS                             41 ITEMS
   1    2  1  1 1 0   0.01920   0.05750   0.05280     0     0     0   0 0       0       0      0      0      0       0      0
   1    3  1  1 1 0   0.04520   0.16520   0.04080     0     0     0   0 0       0       0      0      0      0       0      0
   2    4  1  1 1 0   0.05700   0.17370   0.03680     0     0     0   0 0       0       0      0      0      0       0      0
   3    4  1  1 1 0   0.01320   0.03790   0.00840     0     0     0   0 0       0       0      0      0      0       0      0
   2    5  1  1 1 0   0.04720   0.19830   0.04180     0     0     0   0 0       0       0      0      0      0       0      0
   2    6  1  1 1 0   0.05810   0.17630   0.03740     0     0     0   0 0       0       0      0      0      0       0      0
   4    6  1  1 1 0   0.01190   0.04140   0.00900     0     0     0   0 0       0       0      0      0      0       0      0
   5    7  1  1 1 0   0.04600   0.11600   0.02040     0     0     0   0 0       0       0      0      0      0       0      0
   6    7  1  1 1 0   0.02670   0.08200   0.01700     0     0     0   0 0       0       0      0      0      0       0      0
   6    8  1  1 1 0   0.01200   0.04200   0.00900     0     0     0   0 0       0       0      0      0      0       0      0
   6    9  1  1 1 0   0.00000   0.20800   0.00000     0     0     0   0 0   0.978       0      0      0      0       0      0
   6   10  1  1 1 0   0.00000   0.55600   0.00000     0     0     0   0 0   0.969       0      0      0      0       0      0
   9   11  1  1 1 0   0.00000   0.20800   0.00000     0     0     0   0 0       0       0      0      0      0       0      0
   9   10  1  1 1 0   0.00000   0.11000   0.00000     0     0     0   0 0       0       0      0      0      0       0      0
   4   12  1  1 1 0   0.00000   0.25600   0.00000     0     0     0   0 0   0.932       0      0      0      0       0      0
  12   13  1  1 1 0   0.00000   0.14000   0.00000     0     0     0   0 0       0       0      0      0      0       0      0
  12   14  1  1 1 0   0.12310   0.25590   0.00000     0     0     0   0 0       0       0      0      0      0       0      0
  12   15  1  1 1 0   0.06620   0.13040   0.00000     0     0     0   0 0       0       0      0      0      0       0      0
  12   16  1  1 1 0   0.09450   0.19870   0.00000     0     0     0   0 0       0       0      0      0      0       0      0
  14   15  1  1 1 0   0.22100   0.19970   0.00000     0     0     0   0 0       0       0      0      0      0       0      0
  16   17  1  1 1 0   0.05240   0.19230   0.00000     0     0     0   0 0       0       0      0      0      0       0      0
  15   18  1  1 1 0   0.10730   0.21850   0.00000     0     0     0   0 0       0       0      0      0      0       0      0
  18   19  1  1 1 0   0.06390   0.12920   0.00000     0     0     0   0 0       0       0      0      0      0       0      0
  19   20  1  1 1 0   0.03400   0.06800   0.00000     0     0     0   0 0       0       0      0      0      0       0      0
  10   20  1  1 1 0   0.09360   0.20900   0.00000     0     0     0   0 0       0       0      0      0      0       0      0
  10   17  1  1 1 0   0.03240   0.08450   0.00000     0     0     0   0 0       0       0      0      0      0       0      0
  10   21  1  1 1 0   0.03480   0.07490   0.00000     0     0     0   0 0       0       0      0      0      0       0      0
  10   22  1  1 1 0   0.07270   0.14990   0.00000     0     0     0   0 0       0       0      0      0      0       0      0
  21   22  1  1 1 0   0.01160   0.02360   0.00000     0     0     0   0 0       0       0      0      0      0       0      0
  15   23  1  1 1 0   0.10000   0.20200   0.00000     0     0     0   0 0       0       0      0      0      0       0      0
  22   24  1  1 1 0   0.11500   0.17900   0.00000     0     0     0   0 0       0       0      0      0      0       0      0
  23   24  1  1 1 0   0.13200   0.27000   0.00000     0     0     0   0 0       0       0      0      0      0       0      0
  24   25  1  1 1 0   0.18850   0.32920   0.00000     0     0     0   0 0       0       0      0      0      0       0      0
  25   26  1  1 1 0   0.25440   0.38000   0.00000     0     0     0   0 0       0       0      0      0      0       0      0
  25   27  1  1 1 0   0.10930   0.20870   0.00000     0     0     0   0 0       0       0      0      0      0       0      0
  28   27  1  1 1 0   0.00000   0.39600   0.00000     0     0     0   0 0   0.968       0      0      0      0       0      0
  27   29  1  1 1 0   0.21980   0.41530   0.00000     0     0     0   0 0       0       0      0      0      0       0      0
  27   30  1  1 1 0   0.32020   0.60270   0.00000     0     0     0   0 0       0       0      0      0      0       0      0
  29   30  1  1 1 0   0.23990   0.45330   0.00000     0     0     0   0 0       0       0      0      0      0       0      0
   8   28  1  1 1 0   0.06360   0.20000   0.04280     0     0     0   0 0       0       0      0      0      0       0      0
   6   28  1  1 1 0   0.01690   0.05990   0.01300     0     0     0   0 0       0       0      0      0      0       0      0
-999
END OF DATA
