 05/27/17 WHU LAB               100.0 1991 S IEEE 300-BUS TEST SYSTEM      
BUS DATA FOLLOWS                            300 ITEMS
   1 1             1  1  0  1.028  -2.06     90.0      49.0     0.0     0.0   115.0  0.000     0.0     0.0     0.0     0.0    0
   2 1             1  1  0  1.035  -0.25     56.0      15.0     0.0     0.0   115.0  0.000     0.0     0.0     0.0     0.0    0
   3 1             1  1  0  0.996  -1.37     20.0       0.0     0.0     0.0   230.0  0.000     0.0     0.0     0.0     0.0    0
   4 1             1  1  0  1.029  -3.27      0.0       0.0     0.0     0.0   345.0  0.000     0.0     0.0     0.0     0.0    0
   5 1             1  1  0  1.019  -3.33    353.0     130.0     0.0     0.0   115.0  0.000     0.0     0.0     0.0     0.0    0
   6 1             1  1  0  1.031  -1.00    120.0      41.0     0.0     0.0   115.0  0.000     0.0     0.0     0.0     0.0    0
   7 1             1  1  0  0.993  -1.82      0.0       0.0     0.0     0.0   230.0  0.000     0.0     0.0     0.0     0.0    0
   8 1             1  1  2  1.015  -5.56     58.0      14.0    -5.0    13.5   115.0  1.015    10.0   -10.0     0.0     0.0    0
   9 1             1  1  0  1.003  -5.16     96.0      43.0     0.0     0.0   115.0  0.000     0.0     0.0     0.0     0.0    0
  10 1             1  1  2  1.020  -6.68    148.0      33.0    -5.0    20.8   230.0  1.020    20.0   -20.0     0.0     0.0    0
  11 1             1  1  0  1.006  -5.55     83.0      21.0     0.0     0.0   115.0  0.000     0.0     0.0     0.0     0.0    0
  12 1             1  1  0  0.997  -2.82      0.0       0.0     0.0     0.0   230.0  0.000     0.0     0.0     0.0     0.0    0
  13 1             1  1  0  0.998  -8.60     58.0      10.0     0.0     0.0   115.0  0.000     0.0     0.0     0.0     0.0    0
  14 1             1  1  0  0.998 -12.68    160.0      60.0     0.0     0.0   115.0  0.000     0.0     0.0     0.0     0.0    0
  15 1             1  1  0  1.032 -16.36    126.7      23.0     0.0     0.0   115.0  0.000     0.0     0.0     0.0     0.0    0
  16 1             1  1  0  1.027 -10.56      0.0       0.0     0.0     0.0   345.0  0.000     0.0     0.0     0.0     0.0    0
  17 1             1  1  0  1.064 -20.96    561.0     220.0     0.0     0.0   115.0  0.000     0.0     0.0     0.0     0.0    0
  19 1             1  1  0  0.981  -7.06      0.0       0.0     0.0     0.0   230.0  0.000     0.0     0.0     0.0     0.0    0
  20 1             1  1  2  1.001 -10.53    595.0     120.0   -10.0    23.4   115.0  1.001    20.0   -20.0     0.0     0.0    0
  21 1             1  1  0  0.975  -6.46     77.0       1.0     0.0     0.0   230.0  0.000     0.0     0.0     0.0     0.0    0
  22 1             1  1  0  0.996 -10.05     81.0      23.0     0.0     0.0   115.0  0.000     0.0     0.0     0.0     0.0    0
  23 1             1  1  0  1.050  -4.14     21.0       7.0     0.0     0.0   115.0  0.000     0.0     0.0     0.0     0.0    0
  24 1             1  1  0  1.006  -2.06      0.0       0.0     0.0     0.0   230.0  0.000     0.0     0.0     0.0     0.0    0
  25 1             1  1  0  1.023  -6.64     45.0      12.0     0.0     0.0   115.0  0.000     0.0     0.0     0.0     0.0    0
  26 1             1  1  0  0.999  -9.81     28.0       9.0     0.0     0.0   115.0  0.000     0.0     0.0     0.0     0.0    0
  27 1             1  1  0  0.975 -12.97     69.0      13.0     0.0     0.0   115.0  0.000     0.0     0.0     0.0     0.0    0
  33 1             1  1  0  1.012 -19.03     55.0       6.0     0.0     0.0   115.0  0.000     0.0     0.0     0.0     0.0    0
  34 1             1  1  0  1.032 -15.78      0.0       0.0     0.0     0.0   345.0  0.000     0.0     0.0     0.0     0.0    0
  35 1             1  1  0  0.970 -38.07      0.0       0.0     0.0     0.0   115.0  0.000     0.0     0.0     0.0     0.0    0
  36 1             1  1  0  0.988 -34.22      0.0       0.0     0.0     0.0   230.0  0.000     0.0     0.0     0.0     0.0    0
  37 1             1  1  0  1.009 -17.46     85.0      32.0     0.0     0.0   115.0  0.000     0.0     0.0     0.0     0.0    0
  38 1             1  1  0  1.007 -19.50    155.0      18.0     0.0     0.0   115.0  0.000     0.0     0.0     0.0     0.0    0
  39 1             1  1  0  1.046 -13.74      0.0       0.0     0.0     0.0   345.0  0.000     0.0     0.0     0.0     0.0    0
  40 1             1  1  0  1.009 -19.72     46.0     -21.0     0.0     0.0   115.0  0.000     0.0     0.0     0.0     0.0    0
  41 1             1  1  0  1.015 -17.14     86.0       0.0     0.0     0.0   115.0  0.000     0.0     0.0     0.0     0.0    0
  42 1             1  1  0  1.035 -15.39      0.0       0.0     0.0     0.0   345.0  0.000     0.0     0.0     0.0     0.0    0
  43 1             1  1  0  0.986 -25.02     39.0       9.0     0.0     0.0   115.0  0.000     0.0     0.0     0.0     0.0    0
  44 1             1  1  0  0.992 -26.63    195.0      29.0     0.0     0.0   115.0  0.000     0.0     0.0     0.0     0.0    0
  45 1             1  1  0  1.006 -23.98      0.0       0.0     0.0     0.0   230.0  0.000     0.0     0.0     0.0     0.0    0
  46 1             1  1  0  1.020 -20.61      0.0       0.0     0.0     0.0   345.0  0.000     0.0     0.0     0.0     0.0    0
  47 1             1  1  0  0.954 -33.53     58.0      11.8     0.0     0.0   115.0  0.000     0.0     0.0     0.0     0.0    0
  48 1             1  1  0  0.993 -24.30     41.0      19.0     0.0     0.0   115.0  0.000     0.0     0.0     0.0     0.0    0
  49 1             1  1  0  1.045  -4.37     92.0      26.0     0.0     0.0   115.0  0.000     0.0     0.0     0.0     0.0    0
  51 1             1  1  0  1.012 -12.84     -5.0       5.0     0.0     0.0   115.0  0.000     0.0     0.0     0.0     0.0    0
  52 1             1  1  0  0.985 -18.13     61.0      28.0     0.0     0.0   115.0  0.000     0.0     0.0     0.0     0.0    0
  53 1             1  1  0  0.981 -25.90     69.0       3.0     0.0     0.0   115.0  0.000     0.0     0.0     0.0     0.0    0
  54 1             1  1  0  0.991 -24.58     10.0       1.0     0.0     0.0   115.0  0.000     0.0     0.0     0.0     0.0    0
  55 1             1  1  0  1.006 -19.58     22.0      10.0     0.0     0.0   115.0  0.000     0.0     0.0     0.0     0.0    0
  57 1             1  1  0  1.032 -16.04     98.0      20.0     0.0     0.0   115.0  0.000     0.0     0.0     0.0     0.0    0
  58 1             1  1  0  0.990 -14.29     14.0       1.0     0.0     0.0   115.0  0.000     0.0     0.0     0.0     0.0    0
  59 1             1  1  0  0.978 -13.66    218.0     106.0     0.0     0.0   115.0  0.000     0.0     0.0     0.0     0.0    0
  60 1             1  1  0  1.014 -18.49      0.0       0.0     0.0     0.0   230.0  0.000     0.0     0.0     0.0     0.0    0
  61 1             1  1  0  0.990 -11.87    227.0     110.0     0.0     0.0   115.0  0.000     0.0     0.0     0.0     0.0    0
  62 1             1  1  0  1.014  -9.64      0.0       0.0     0.0     0.0   230.0  0.000     0.0     0.0     0.0     0.0    0
  63 1             1  1  2  0.958 -26.12     70.0      30.0     0.0    27.0   115.0  0.958    25.0   -25.0     0.0     0.0    0
  64 1             1  1  0  0.947 -21.49      0.0       0.0     0.0     0.0   230.0  0.000     0.0     0.0     0.0     0.0    0
  69 1             1  1  0  0.710 -42.34      0.0       0.0     0.0     0.0   115.0  0.000     0.0     0.0     0.0     0.0    0
  70 1             1  1  0  0.943 -47.50     56.0      20.0     0.0     0.0   115.0  0.000     0.0     0.0     0.0     0.0    0
  71 1             1  1  0  0.971 -42.13    116.0      38.0     0.0     0.0   115.0  0.000     0.0     0.0     0.0     0.0    0
  72 1             1  1  0  0.961 -39.89     57.0      19.0     0.0     0.0   115.0  0.000     0.0     0.0     0.0     0.0    0
  73 1             1  1  0  0.960 -37.54    224.0      71.0     0.0     0.0   115.0  0.000     0.0     0.0     0.0     0.0    0
  74 1             1  1  0  0.978 -33.05      0.0       0.0     0.0     0.0   230.0  0.000     0.0     0.0     0.0     0.0    0
  76 1             1  1  2  0.963 -39.07    208.0     107.0     0.0   133.8   115.0  0.963    35.0    12.0     0.0     0.0    0
  77 1             1  1  0  0.970 -37.49     74.0      28.0     0.0     0.0   115.0  0.000     0.0     0.0     0.0     0.0    0
  78 1             1  1  0  0.974 -36.65      0.0       0.0     0.0     0.0   115.0  0.000     0.0     0.0     0.0     0.0    0
  79 1             1  1  0  0.944 -37.68     48.0      14.0     0.0     0.0   115.0  0.000     0.0     0.0     0.0     0.0    0
  80 1             1  1  0  0.967 -37.79     28.0       7.0     0.0     0.0   115.0  0.000     0.0     0.0     0.0     0.0    0
  81 1             1  1  0  1.020 -29.83      0.0       0.0     0.0     0.0   345.0  0.000     0.0     0.0     0.0     0.0    0
  84 1             1  1  2  1.025 -29.64     37.0      13.0   375.0   180.0   115.0  1.025   240.0  -240.0     0.0     0.0    0
  85 1             1  1  0  0.984 -27.20      0.0       0.0     0.0     0.0   230.0  0.000     0.0     0.0     0.0     0.0    0
  86 1             1  1  0  0.988 -23.28      0.0       0.0     0.0     0.0   230.0  0.000     0.0     0.0     0.0     0.0    0
  87 1             1  1  0  0.990 -16.34      0.0       0.0     0.0     0.0   230.0  0.000     0.0     0.0     0.0     0.0    0
  88 1             1  1  0  1.000 -32.14      0.0       0.0     0.0     0.0   230.0  0.000     0.0     0.0     0.0     0.0    0
  89 1             1  1  0  1.028 -18.91     44.2       0.0     0.0     0.0   115.0  0.000     0.0     0.0     0.0     0.0    0
  90 1             1  1  0  1.021 -18.56     66.0       0.0     0.0     0.0   115.0  0.000     0.0     0.0     0.0     0.0    0
  91 1             1  1  2  1.052 -17.87     17.4       0.0   155.0    50.7   115.0  1.052    96.0   -11.0     0.0     0.0    0
  92 1             1  1  2  1.052 -14.59     15.8       0.0   290.0    46.0   115.0  1.052   153.0  -153.0     0.0     0.0    0
  94 1             1  1  0  0.991 -17.99     60.3       0.0     0.0     0.0   115.0  0.000     0.0     0.0     0.0     0.0    0
  97 1             1  1  0  1.017 -22.01     39.9       0.0     0.0     0.0   115.0  0.000     0.0     0.0     0.0     0.0    0
  98 1             1  1  2  1.000 -23.60     66.7       0.0    68.0    -7.7   115.0  1.000    56.0   -30.0     0.0     0.0    0
  99 1             1  1  0  0.987 -30.12     83.5       0.0     0.0     0.0   115.0  0.000     0.0     0.0     0.0     0.0    0
 100 1             1  1  0  1.005 -23.39      0.0       0.0     0.0     0.0   115.0  0.000     0.0     0.0     0.0     0.0    0
 102 1             1  1  0  0.999 -24.25     77.8       0.0     0.0     0.0   115.0  0.000     0.0     0.0     0.0     0.0    0
 103 1             1  1  0  1.025 -20.73     32.0       0.0     0.0     0.0   115.0  0.000     0.0     0.0     0.0     0.0    0
 104 1             1  1  0  0.994 -26.65      8.6       0.0     0.0     0.0   115.0  0.000     0.0     0.0     0.0     0.0    0
 105 1             1  1  0  1.015 -21.67     49.6       0.0     0.0     0.0   115.0  0.000     0.0     0.0     0.0     0.0    0
 107 1             1  1  0  1.002 -24.76      4.6       0.0     0.0     0.0   115.0  0.000     0.0     0.0     0.0     0.0    0
 108 1             1  1  2  0.990 -30.16    112.1       0.0   117.0    76.2   115.0  0.990    77.0   -24.0     0.0     0.0    0
 109 1             1  1  0  0.914 -37.86     30.7       0.0     0.0     0.0   115.0  0.000     0.0     0.0     0.0     0.0    0
 110 1             1  1  0  0.922 -35.95     63.0       0.0     0.0     0.0   115.0  0.000     0.0     0.0     0.0     0.0    0
 112 1             1  1  0  0.813 -45.04     19.6       0.0     0.0     0.0   115.0  0.000     0.0     0.0     0.0     0.0    0
 113 1             1  1  0  0.934 -36.24     26.2       0.0     0.0     0.0   115.0  0.000     0.0     0.0     0.0     0.0    0
 114 1             1  1  0  0.806 -45.35     18.2       0.0     0.0     0.0   115.0  0.000     0.0     0.0     0.0     0.0    0
 115 2             1  1  0  0.960 -21.65      0.0       0.0     0.0     0.0   115.0  0.000     0.0     0.0     0.0     0.0    0
 116 2             1  1  0  1.025 -20.77      0.0       0.0     0.0     0.0   115.0  0.000     0.0     0.0     0.0     0.0    0
 117 2             1  1  0  0.935 -12.80      0.0       0.0     0.0     0.0   115.0  0.000     0.0     0.0     0.0     3.2    0
 118 2             1  1  0  0.930 -12.20     14.1     650.0     0.0     0.0   115.0  0.000     0.0     0.0     0.0     0.0    0
 119 2             1  1  2  1.043  -2.91      0.0       0.0  1930.0  1050.8   115.0  1.044  1500.0  -500.0     0.0     0.0    0
 120 2             1  1  0  0.958 -16.85    777.0     215.0     0.0     0.0   115.0  0.000     0.0     0.0     0.0     0.6    0
 121 2             1  1  0  0.987 -20.72    535.0      55.0     0.0     0.0   115.0  0.000     0.0     0.0     0.0     0.0    0
 122 2             1  1  0  0.973 -22.44    229.1      11.8     0.0     0.0   115.0  0.000     0.0     0.0     0.0     0.0    0
 123 2             1  1  0  1.001 -25.71     78.0       1.4     0.0     0.0   115.0  0.000     0.0     0.0     0.0     0.0    0
 124 2             1  1  2  1.023 -21.57    276.4      59.3   240.0   120.0   115.0  1.023   120.0   -60.0     0.0     0.0    0
 125 2             1  1  2  1.010 -26.51    514.8      82.7     0.0   200.0   115.0  1.010   200.0   -25.0     0.0     0.0    0
 126 2             1  1  0  0.998 -20.94     57.9       5.1     0.0     0.0   115.0  0.000     0.0     0.0     0.0     0.0    0
 127 2             1  1  0  1.000 -18.61    380.8      37.0     0.0     0.0   230.0  0.000     0.0     0.0     0.0     0.0    0
 128 2             1  1  0  1.002 -12.86      0.0       0.0     0.0     0.0   230.0  0.000     0.0     0.0     0.0     0.0    0
 129 2             1  1  0  1.003 -12.48      0.0       0.0     0.0     0.0   230.0  0.000     0.0     0.0     0.0     0.0    0
 130 2             1  1  0  1.019  -2.48      0.0       0.0     0.0     0.0   230.0  0.000     0.0     0.0     0.0     0.0    0
 131 2             1  1  0  0.986  -1.96      0.0       0.0     0.0     0.0   230.0  0.000     0.0     0.0     0.0     0.0    0
 132 2             1  1  0  1.004  -5.00      0.0       0.0     0.0     0.0   230.0  0.000     0.0     0.0     0.0     0.0    0
 133 2             1  1  0  1.002 -13.55      0.0       0.0     0.0     0.0   230.0  0.000     0.0     0.0     0.0     0.0    0
 134 2             1  1  0  1.022 -16.13      0.0       0.0     0.0     0.0   230.0  0.000     0.0     0.0     0.0     0.0    0
 135 2             1  1  0  1.019 -14.85    169.2      41.6     0.0     0.0   230.0  0.000     0.0     0.0     0.0     0.0    0
 136 2             1  1  0  1.048  -6.57     55.2      18.2     0.0     0.0   230.0  0.000     0.0     0.0     0.0     0.0    0
 137 2             1  1  0  1.047  -9.57    273.6      99.8     0.0     0.0   230.0  0.000     0.0     0.0     0.0     0.0    0
 138 2             1  1  2  1.055 -14.47    826.7     135.2  -192.5   227.6   230.0  1.055   350.0  -125.0     0.0     0.0    0
 139 2             1  1  0  1.012 -11.71    595.0      83.3     0.0     0.0   115.0  0.000     0.0     0.0     0.0     0.0    0
 140 2             1  1  0  1.043 -11.58    387.7     114.7     0.0     0.0   230.0  0.000     0.0     0.0     0.0     0.0    0
 141 2             1  1  2  1.051  -8.11    145.0      58.0   281.0    64.1   230.0  1.051    75.0   -50.0     0.0     0.0    0
 142 2             1  1  0  1.018 -11.04     56.5      24.5     0.0     0.0   230.0  0.000     0.0     0.0     0.0     0.0    0
 143 2             1  1  2  1.044  -4.29     89.5      35.5   696.0   121.1   230.0  1.044   300.0  -100.0     0.0     0.0    0
 144 2             1  1  0  1.014  -9.22      0.0       0.0     0.0     0.0   230.0  0.000     0.0     0.0     0.0     0.0    0
 145 2             1  1  0  1.008  -8.42     24.0      14.0     0.0     0.0   230.0  0.000     0.0     0.0     0.0     0.0    0
 146 2             1  1  2  1.053  -3.90      0.0       0.0    84.0    34.7   230.0  1.053    35.0   -15.0     0.0     0.0    0
 147 2             1  1  2  1.053   0.15      0.0       0.0   217.0   -50.1   230.0  1.053   100.0   -50.0     0.0     0.0    0
 148 2             1  1  0  1.058  -8.03     63.0      25.0     0.0     0.0   230.0  0.000     0.0     0.0     0.0     0.0    0
 149 2             1  1  2  1.074  -3.07      0.0       0.0   103.0    49.9   230.0  1.073    50.0   -25.0     0.0     0.0    0
 150 2             1  1  0  0.986  -1.68      0.0       0.0     0.0     0.0   230.0  0.000     0.0     0.0     0.0     0.0    0
 151 2             1  1  0  1.005  -3.91      0.0       0.0     0.0     0.0   230.0  0.000     0.0     0.0     0.0     0.0    0
 152 2             1  1  2  1.054   1.13     17.0       9.0   372.0   -50.1   230.0  1.054   175.0   -50.0     0.0     0.0    0
 153 2             1  1  2  1.043   2.35      0.0       0.0   216.0   -24.6   230.0  1.044    90.0   -50.0     0.0     0.0    0
 154 2             1  1  0  0.966  -9.92     70.0       5.0     0.0     0.0   115.0  0.000     0.0     0.0     0.0     0.3    0
 155 2             1  1  0  1.018  -1.37    200.0      50.0     0.0     0.0   230.0  0.000     0.0     0.0     0.0     0.0    0
 156 2             1  1  2  0.963  -2.98     75.0      50.0     0.0    12.6   115.0  0.963    15.0   -10.0     0.0     0.0    0
 157 2             1  1  0  0.984 -20.01    123.5     -24.3     0.0     0.0   230.0  0.000     0.0     0.0     0.0     0.0    0
 158 2             1  1  0  0.999 -19.48      0.0       0.0     0.0     0.0   230.0  0.000     0.0     0.0     0.0     0.0    0
 159 2             1  1  0  0.987 -17.90     33.0      16.5     0.0     0.0   230.0  0.000     0.0     0.0     0.0     0.0    0
 160 2             1  1  0  1.000 -20.63      0.0       0.0     0.0     0.0   230.0  0.000     0.0     0.0     0.0     0.0    0
 161 2             1  1  0  1.036   0.73     35.0      15.0     0.0     0.0   230.0  0.000     0.0     0.0     0.0     0.0    0
 162 2             1  1  0  0.992  10.36     85.0      24.0     0.0     0.0   230.0  0.000     0.0     0.0     0.0     0.0    0
 163 2             1  1  0  1.042  -5.22      0.0       0.4     0.0     0.0   230.0  0.000     0.0     0.0     0.0     0.0    0
 164 2             1  1  0  0.985   1.53      0.0       0.0     0.0     0.0   230.0  0.000     0.0     0.0     0.0    -2.1    0
 165 2             1  1  0  1.001  18.16      0.0       0.0     0.0     0.0   230.0  0.000     0.0     0.0     0.0     0.0    0
 166 2             1  1  0  0.997  22.07      0.0       0.0     0.0     0.0   230.0  0.000     0.0     0.0     0.0    -1.0    0
 167 2             1  1  0  0.971 -14.98    299.9      95.7     0.0     0.0   230.0  0.000     0.0     0.0     0.0     0.0    0
 168 2             1  1  0  1.002 -12.88      0.0       0.0     0.0     0.0   230.0  0.000     0.0     0.0     0.0     0.0    0
 169 2             1  1  0  0.988 -14.76      0.0       0.0     0.0     0.0   230.0  0.000     0.0     0.0     0.0     0.0    0
 170 2             1  1  2  0.929  -7.95    481.8     205.0   205.0    91.2   115.0  0.929    90.0   -40.0     0.0     0.0    0
 171 2             1  1  2  0.983 -18.03    763.6     291.1     0.0   150.0   115.0  0.983   150.0   -50.0     0.0     0.0    0
 172 2             1  1  0  1.025 -14.38     26.5       0.0     0.0     0.0   115.0  0.000     0.0     0.0     0.0     0.0    0
 173 2             1  1  0  0.985 -20.94    163.5      43.0     0.0     0.0   115.0  0.000     0.0     0.0     0.0     0.5    0
 174 2             1  1  0  1.063 -10.86      0.0       0.0     0.0     0.0   115.0  0.000     0.0     0.0     0.0     0.0    0
 175 2             1  1  0  0.977 -15.46    176.0      83.0     0.0     0.0   115.0  0.000     0.0     0.0     0.0     0.0    0
 176 2             1  1  2  1.052  -3.58      5.0       4.0   228.0    38.2   115.0  1.052    90.0   -45.0     0.0     0.0    0
 177 2             1  1  2  1.008  -7.63     28.0      12.0    84.0    34.7   115.0  1.008    35.0   -15.0     0.0     0.0    0
 178 2             1  1  0  0.940 -14.83    427.4     173.6     0.0     0.0   115.0  0.000     0.0     0.0     0.0     0.0    0
 179 2             1  1  0  0.971 -17.63     74.0      29.0     0.0     0.0   115.0  0.000     0.0     0.0     0.0     0.5    0
 180 2             1  1  0  0.980 -11.35     69.5      49.3     0.0     0.0   115.0  0.000     0.0     0.0     0.0     0.0    0
 181 2             1  1  0  1.052  -9.44     73.4       0.0     0.0     0.0   230.0  0.000     0.0     0.0     0.0     0.0    0
 182 2             1  1  0  1.045 -12.33    240.7      89.0     0.0     0.0   230.0  0.000     0.0     0.0     0.0     0.0    0
 183 2             1  1  0  0.972  -0.99     40.0       4.0     0.0     0.0   115.0  0.000     0.0     0.0     0.0     0.0    0
 184 2             1  1  0  1.039 -14.94    136.8      16.6     0.0     0.0   230.0  0.000     0.0     0.0     0.0     0.0    0
 185 2             1  1  2  1.052 -12.42      0.0       0.0   200.0    33.3   230.0  1.052    80.0   -50.0     0.0     0.0    0
 186 2             1  1  2  1.065  -5.95     59.8      24.3  1200.0   235.0   230.0  1.065   400.0  -100.0     0.0     0.0    0
 187 2             1  1  2  1.065  -6.72     59.8      24.3  1200.0   275.8   230.0  1.065   400.0  -100.0     0.0     0.0    0
 188 2             1  1  0  1.053  -8.84    182.6      43.6     0.0     0.0   230.0  0.000     0.0     0.0     0.0     0.0    0
 189 3             1  1  0  0.827 -45.11      7.0       2.0     0.0     0.0    66.0  0.000     0.0     0.0     0.0     0.0    0
 190 3             1  1  2  1.055 -32.38      0.0       0.0   475.0   -10.9   345.0  1.055   300.0  -300.0     0.0    -1.5    0
 191 3             1  1  2  1.044   0.45    489.0      53.0  1973.0   689.6   230.0  1.044  1000.0 -1000.0     0.0     0.0    0
 192 3             1  1  0  0.938 -22.97    800.0      72.0     0.0     0.0   230.0  0.000     0.0     0.0     0.0     0.0    0
 193 3             1  1  0  0.593 -54.04      0.0       0.0     0.0     0.0    66.0  0.000     0.0     0.0     0.0     0.0    0
 194 3             1  1  0  1.041 -30.58      0.0       0.0     0.0     0.0   345.0  0.000     0.0     0.0     0.0     0.0    0
 195 3             1  1  0  1.023 -32.54      0.0       0.0     0.0     0.0   345.0  0.000     0.0     0.0     0.0     0.0    0
 196 3             1  1  0  0.896 -37.73     10.0       3.0     0.0     0.0   115.0  0.000     0.0     0.0     0.0     0.0    0
 197 3             1  1  0  0.952 -36.95     43.0      14.0     0.0     0.0   115.0  0.000     0.0     0.0     0.0     0.0    0
 198 3             1  1  2  1.015 -34.76     64.0      21.0   424.0   360.9   115.0  1.015   260.0  -260.0     0.0     0.0    0
 199 3             1  1  0  0.903 -39.96     35.0      12.0     0.0     0.0   115.0  0.000     0.0     0.0     0.0     0.0    0
 200 3             1  1  0  0.911 -39.82     27.0      12.0     0.0     0.0   115.0  0.000     0.0     0.0     0.0     0.0    0
 201 1             1  1  0  0.534 -59.01     41.0      14.0     0.0     0.0    66.0  0.000     0.0     0.0     0.0     0.0    0
 202 3             1  1  0  0.966 -38.63     38.0      13.0     0.0     0.0    66.0  0.000     0.0     0.0     0.0     0.0    0
 203 3             1  1  0  0.991 -36.06     42.0      14.0     0.0     0.0   115.0  0.000     0.0     0.0     0.0     0.0    0
 204 3             1  1  0  0.149 -84.05     72.0      24.0     0.0     0.0    66.0  0.000     0.0     0.0     0.0     0.0    0
 205 3             1  1  0  0.395 -58.46      0.0      -5.0     0.0     0.0    66.0  0.000     0.0     0.0     0.0     0.0    0
 206 3             1  1  0  0.708 -49.69     12.0       2.0     0.0     0.0    66.0  0.000     0.0     0.0     0.0     0.0    0
 207 1             1  1  0  0.791 -48.26    -21.0     -14.2     0.0     0.0    66.0  0.000     0.0     0.0     0.0     0.0    0
 208 3             1  1  0  0.721 -48.82      7.0       2.0     0.0     0.0    66.0  0.000     0.0     0.0     0.0     0.0    0
 209 3             1  1  0  0.876 -44.46     38.0      13.0     0.0     0.0    66.0  0.000     0.0     0.0     0.0     0.0    0
 210 3             1  1  0  0.926 -37.98      0.0       0.0     0.0     0.0   115.0  0.000     0.0     0.0     0.0     0.0    0
 211 3             1  1  0  0.972 -36.45     96.0       7.0     0.0     0.0   115.0  0.000     0.0     0.0     0.0     0.0    0
 212 3             1  1  0  0.991 -35.27      0.0       0.0     0.0     0.0   138.0  0.000     0.0     0.0     0.0     0.0    0
 213 3             1  1  2  1.010 -24.20      0.0       0.0   272.0    48.0    16.5  1.010   150.0  -150.0     0.0     0.0    0
 214 3             1  1  0  0.990 -30.06     22.0      16.0     0.0     0.0   138.0  0.000     0.0     0.0     0.0     0.0    0
 215 3             1  1  0  0.982 -32.70     47.0      26.0     0.0     0.0   138.0  0.000     0.0     0.0     0.0     0.0    0
 216 3             1  1  0  0.972 -34.79    176.0     105.0     0.0     0.0   138.0  0.000     0.0     0.0     0.0     0.0    0
 217 3             1  1  0  1.020 -34.04    100.0      75.0     0.0     0.0   138.0  0.000     0.0     0.0     0.0     0.0    0
 218 3             1  1  0  1.006 -34.41    131.0      96.0     0.0     0.0   138.0  0.000     0.0     0.0     0.0     0.0    0
 219 3             1  1  0  1.053 -32.88      0.0       0.0     0.0     0.0   345.0  0.000     0.0     0.0     0.0     0.0    0
 220 3             1  1  2  1.008 -33.52    285.0     100.0   100.0    44.5   138.0  1.008    60.0   -60.0     0.0     0.0    0
 221 3             1  1  2  1.000 -34.26    171.0      70.0   450.0   135.0   138.0  1.000   320.0  -320.0     0.0     0.0    0
 222 3             1  1  2  1.050 -34.92    328.0     188.0   250.0   182.7    20.0  1.050   300.0  -300.0     0.0     0.0    0
 223 3             1  1  0  0.997 -34.48    428.0     232.0     0.0     0.0   138.0  0.000     0.0     0.0     0.0     0.0    0
 224 3             1  1  0  1.002 -33.33    173.0      99.0     0.0     0.0   230.0  0.000     0.0     0.0     0.0     0.0    0
 225 3             1  1  0  0.946 -23.13    410.0      40.0     0.0     0.0   230.0  0.000     0.0     0.0     0.0     0.0    0
 226 3             1  1  0  1.019 -33.37      0.0       0.0     0.0     0.0   230.0  0.000     0.0     0.0     0.0     0.0    0
 227 3             1  1  2  1.000 -38.97    538.0     369.0   303.0   274.7    27.0  1.000   300.0  -300.0     0.0     0.0    0
 228 3             1  1  0  1.042 -32.70    223.0     148.0     0.0     0.0   138.0  0.000     0.0     0.0     0.0     0.0    0
 229 3             1  1  0  1.049 -31.70     96.0      46.0     0.0     0.0   138.0  0.000     0.0     0.0     0.0     0.0    0
 230 3             1  1  2  1.040 -25.58      0.0       0.0   345.0    43.3    20.0  1.040   250.0  -250.0     0.0     0.0    0
 231 3             1  1  0  1.052 -32.97    159.0     107.0     0.0     0.0   345.0  0.000     0.0     0.0     0.0    -3.0    0
 232 3             1  1  0  1.040 -34.95    448.0     143.0     0.0     0.0   138.0  0.000     0.0     0.0     0.0     0.0    0
 233 3             1  1  2  1.000 -37.65    404.0     212.0   300.0   134.7    66.0  1.000   500.0  -500.0     0.0     0.0    0
 234 3             1  1  0  1.038 -32.66    572.0     244.0     0.0     0.0   138.0  0.000     0.0     0.0     0.0     0.0    0
 235 3             1  1  0  1.010 -32.81    269.0     157.0     0.0     0.0   138.0  0.000     0.0     0.0     0.0     0.0    0
 236 3             1  1  2  1.016 -27.16      0.0       0.0   600.0   302.8    20.0  1.016   300.0  -300.0     0.0     0.0    0
 237 3             1  1  0  1.054 -32.84      0.0       0.0     0.0     0.0   345.0  0.000     0.0     0.0     0.0     0.0    0
 238 3             1  1  2  1.010 -32.73    255.0     149.0   250.0   165.2   138.0  1.010   200.0  -200.0     0.0    -1.5    0
 239 3             1  1  2  1.000 -27.65      0.0       0.0   550.0    68.4   138.0  1.000   400.0  -400.0     0.0     0.0    0
 240 3             1  1  0  1.024 -31.89      0.0       0.0     0.0     0.0   230.0  0.000     0.0     0.0     0.0    -1.4    0
 241 3             1  1  2  1.050 -28.25      0.0       0.0   575.4   -25.2    20.0  1.050   600.0  -600.0     0.0     0.0    0
 242 3             1  1  2  0.993 -30.11      0.0       0.0   170.0    76.2   138.0  0.993   100.0    40.0     0.0     0.0    0
 243 3             1  1  2  1.010 -32.00      8.0       3.0    84.0    55.6    66.0  1.010    80.0    40.0     0.0     0.0    0
 244 3             1  1  0  0.991 -32.93      0.0       0.0     0.0     0.0    66.0  0.000     0.0     0.0     0.0     0.0    0
 245 3             1  1  0  0.969 -33.57     61.0      30.0     0.0     0.0    66.0  0.000     0.0     0.0     0.0     0.0    0
 246 3             1  1  0  0.963 -34.45     77.0      33.0     0.0     0.0    66.0  0.000     0.0     0.0     0.0     0.0    0
 247 3             1  1  0  0.963 -34.41     61.0      30.0     0.0     0.0    66.0  0.000     0.0     0.0     0.0     0.0    0
 248 3             1  1  0  0.953 -38.22     29.0      14.0     0.0     0.0    66.0  0.000     0.0     0.0     0.0     0.5    0
 249 3             1  1  0  0.952 -38.67     29.0      14.0     0.0     0.0    66.0  0.000     0.0     0.0     0.0     0.0    0
 250 3             1  1  0  0.998 -36.72    -23.0     -17.0     0.0     0.0    66.0  0.000     0.0     0.0     0.0     0.0    0
 281 3             1  1  0  1.025 -31.82    -33.1     -29.4     0.0     0.0   230.0  0.000     0.0     0.0     0.0     0.0    0
 319 1             1  1  0  1.015  -6.60    115.8     -24.0     0.0     0.0   230.0  0.000     0.0     0.0     0.0     0.0    0
 320 1             1  1  0  1.015 -10.31      2.4     -12.6     0.0     0.0   115.0  0.000     0.0     0.0     0.0     0.0    0
 322 1             1  1  0  0.999 -26.94      2.4      -3.9     0.0     0.0   115.0  0.000     0.0     0.0     0.0     0.0    0